
     RDKit          3D

 78 83  0  0  0  0  0  0  0  0999 V2000
   10.2804   43.7664   33.8250 C   0  0  0  0  0  0  0  0  0  0  0  0
   11.4111   43.5918   34.3666 O   0  0  0  0  0  0  0  0  0  0  0  0
    9.3618   42.7250   33.7345 O   0  0  0  0  0  0  0  0  0  0  0  0
    9.8898   41.2267   34.2940 P   0  0  0  0  0  0  0  0  0  0  0  0
   10.3735   41.4566   35.8832 O   0  0  0  0  0  0  0  0  0  0  0  0
    9.9460   45.0736   33.2112 C   0  0  1  0  0  0  0  0  0  0  0  0
   11.0267   46.0292   33.4709 N   0  0  0  0  0  0  0  0  0  0  0  0
    9.7542   44.8541   31.6949 C   0  0  0  0  0  0  0  0  0  0  0  0
    8.7960   45.8413   31.0850 C   0  0  0  0  0  0  0  0  0  0  0  0
    7.4098   45.6005   31.1010 C   0  0  0  0  0  0  0  0  0  0  0  0
    9.2823   46.9876   30.4401 C   0  0  0  0  0  0  0  0  0  0  0  0
    6.5265   46.4990   30.4864 C   0  0  0  0  0  0  0  0  0  0  0  0
    8.3992   47.8863   29.8314 C   0  0  0  0  0  0  0  0  0  0  0  0
    7.0169   47.6556   29.8451 C   0  0  0  0  0  0  0  0  0  0  0  0
    6.1917   48.5962   29.2012 O   0  0  0  0  0  0  0  0  0  0  0  0
    4.7611   48.5852   29.1018 C   0  0  2  0  0  0  0  0  0  0  0  0
    4.1354   48.9179   30.4657 C   0  0  0  0  0  0  0  0  0  0  0  0
    4.2534   47.3204   28.4067 C   0  0  0  0  0  0  0  0  0  0  0  0
    3.2089   46.5432   28.9786 C   0  0  0  0  0  0  0  0  0  0  0  0
    4.8446   46.8793   27.1714 C   0  0  0  0  0  0  0  0  0  0  0  0
    2.8300   45.3665   28.3471 C   0  0  0  0  0  0  0  0  0  0  0  0
    4.4251   45.6635   26.5862 C   0  0  0  0  0  0  0  0  0  0  0  0
    5.8716   47.6355   26.5073 N   0  0  0  0  0  0  0  0  0  0  0  0
    1.8605   44.4604   28.7323 O   0  0  0  0  0  0  0  0  0  0  0  0
    3.4153   44.9428   27.2053 C   0  0  0  0  0  0  0  0  0  0  0  0
    6.8663   46.9805   25.8183 O   0  0  0  0  0  0  0  0  0  0  0  0
    5.7666   48.8723   26.3791 O   0  0  0  0  0  0  0  0  0  0  0  0
    1.8377   43.3997   27.7675 C   0  0  0  0  0  0  0  0  0  0  0  0
    2.8461   43.7478   26.8093 O   0  0  0  0  0  0  0  0  0  0  0  0
    8.8122   40.1844   34.2133 O   0  0  0  0  0  0  0  0  0  0  0  0
   11.2402   40.7944   33.3688 O   0  0  0  0  0  0  0  0  0  0  0  0
   10.9142   40.6898   31.9970 C   0  0  0  0  0  0  0  0  0  0  0  0
   11.5260   39.3884   31.4376 C   0  0  0  0  0  0  0  0  0  0  0  0
   12.7504   39.0888   32.0816 O   0  0  0  0  0  0  0  0  0  0  0  0
   10.6114   38.1909   31.6460 C   0  0  0  0  0  0  0  0  0  0  0  0
   12.9357   37.6812   32.0303 C   0  0  0  0  0  0  0  0  0  0  0  0
    9.6145   38.0858   30.6533 O   0  0  0  0  0  0  0  0  0  0  0  0
   11.5769   37.0148   31.7012 C   0  0  0  0  0  0  0  0  0  0  0  0
   13.4849   37.2112   33.3247 N   0  0  0  0  0  0  0  0  0  0  0  0
   11.6193   36.3261   30.4724 O   0  0  0  0  0  0  0  0  0  0  0  0
   14.4802   36.3313   33.5730 C   0  0  0  0  0  0  0  0  0  0  0  0
   13.1141   37.6268   34.5698 C   0  0  0  0  0  0  0  0  0  0  0  0
   15.2075   35.6151   32.6741 N   0  0  0  0  0  0  0  0  0  0  0  0
   14.6761   36.2300   34.9184 C   0  0  0  0  0  0  0  0  0  0  0  0
   13.8220   37.0445   35.5789 N   0  0  0  0  0  0  0  0  0  0  0  0
   16.1642   34.7600   33.1547 C   0  0  0  0  0  0  0  0  0  0  0  0
   15.6529   35.3503   35.4131 C   0  0  0  0  0  0  0  0  0  0  0  0
   16.3798   34.6314   34.5042 N   0  0  0  0  0  0  0  0  0  0  0  0
   15.9004   35.1930   36.8090 N   0  0  0  0  0  0  0  0  0  0  0  0
    8.9996   45.4381   33.6721 H   0  0  0  0  0  0  0  0  0  0  0  0
   11.0502   46.2277   34.4983 H   0  0  0  0  0  0  0  0  0  0  0  0
   10.7765   46.9369   33.0160 H   0  0  0  0  0  0  0  0  0  0  0  0
   10.7414   44.9079   31.1836 H   0  0  0  0  0  0  0  0  0  0  0  0
    9.3646   43.8354   31.4710 H   0  0  0  0  0  0  0  0  0  0  0  0
    7.0159   44.7150   31.5847 H   0  0  0  0  0  0  0  0  0  0  0  0
   10.3461   47.1875   30.4051 H   0  0  0  0  0  0  0  0  0  0  0  0
    5.4742   46.2721   30.5193 H   0  0  0  0  0  0  0  0  0  0  0  0
    8.7925   48.7664   29.3386 H   0  0  0  0  0  0  0  0  0  0  0  0
    4.4790   49.4346   28.4447 H   0  0  0  0  0  0  0  0  0  0  0  0
    4.2937   48.1064   31.2033 H   0  0  0  0  0  0  0  0  0  0  0  0
    4.5984   49.8437   30.8685 H   0  0  0  0  0  0  0  0  0  0  0  0
    3.0464   49.1063   30.3542 H   0  0  0  0  0  0  0  0  0  0  0  0
    2.7107   46.8190   29.8964 H   0  0  0  0  0  0  0  0  0  0  0  0
    4.8597   45.3023   25.6631 H   0  0  0  0  0  0  0  0  0  0  0  0
    2.0879   42.4333   28.2532 H   0  0  0  0  0  0  0  0  0  0  0  0
    0.8435   43.3486   27.2762 H   0  0  0  0  0  0  0  0  0  0  0  0
   11.3777   41.5526   31.4723 H   0  0  0  0  0  0  0  0  0  0  0  0
    9.8232   40.7190   31.7644 H   0  0  0  0  0  0  0  0  0  0  0  0
   11.7283   39.5311   30.3515 H   0  0  0  0  0  0  0  0  0  0  0  0
   10.1127   38.2734   32.6376 H   0  0  0  0  0  0  0  0  0  0  0  0
   13.6692   37.4566   31.2242 H   0  0  0  0  0  0  0  0  0  0  0  0
   10.0533   38.1119   29.7635 H   0  0  0  0  0  0  0  0  0  0  0  0
   11.2607   36.3148   32.5102 H   0  0  0  0  0  0  0  0  0  0  0  0
   12.1496   35.5023   30.6324 H   0  0  0  0  0  0  0  0  0  0  0  0
   12.3301   38.3524   34.7455 H   0  0  0  0  0  0  0  0  0  0  0  0
   16.7562   34.1781   32.4619 H   0  0  0  0  0  0  0  0  0  0  0  0
   16.6351   34.5298   37.1415 H   0  0  0  0  0  0  0  0  0  0  0  0
   15.3536   35.7357   37.5139 H   0  0  0  0  0  0  0  0  0  0  0  0
  1  2  2  0
  1  3  1  0
  3  4  1  0
  4  5  1  0
  6  1  1  0
  7  6  1  0
  6  8  1  0
  8  9  1  0
  9 10  2  0
 11  9  1  0
 10 12  1  0
 13 11  2  0
 12 14  2  0
 14 13  1  0
 14 15  1  0
 15 16  1  0
 16 17  1  0
 16 18  1  0
 18 19  2  0
 20 18  1  0
 19 21  1  0
 22 20  2  0
 20 23  1  0
 21 24  1  0
 21 25  2  0
 25 22  1  0
 23 26  1  0
 23 27  2  0
 24 28  1  0
 25 29  1  0
 28 29  1  0
  4 30  2  0
  4 31  1  0
 32 31  1  0
 32 33  1  0
 33 34  1  0
 33 35  1  0
 34 36  1  0
 35 37  1  0
 35 38  1  0
 38 36  1  0
 36 39  1  0
 38 40  1  0
 41 39  1  0
 42 39  1  0
 43 41  2  0
 41 44  1  0
 45 42  2  0
 46 43  1  0
 44 47  2  0
 44 45  1  0
 48 46  2  0
 48 47  1  0
 47 49  1  0
  6 50  1  1
  7 51  1  0
  7 52  1  0
  8 53  1  0
  8 54  1  0
 10 55  1  0
 11 56  1  0
 12 57  1  0
 13 58  1  0
 16 59  1  6
 17 60  1  0
 17 61  1  0
 17 62  1  0
 19 63  1  0
 22 64  1  0
 28 65  1  0
 28 66  1  0
 32 67  1  0
 32 68  1  0
 33 69  1  0
 35 70  1  0
 36 71  1  0
 37 72  1  0
 38 73  1  0
 40 74  1  0
 42 75  1  0
 46 76  1  0
 49 77  1  0
 49 78  1  0
M  CHG  3   5  -1  23   1  26  -1
M  END
>  <EmbedRMS>  (1) 
0.0814253243997

$$$$

     RDKit          3D

 78 83  0  0  0  0  0  0  0  0999 V2000
   10.2803   43.7665   33.8250 C   0  0  0  0  0  0  0  0  0  0  0  0
   11.4110   43.5919   34.3666 O   0  0  0  0  0  0  0  0  0  0  0  0
    9.3616   42.7251   33.7349 O   0  0  0  0  0  0  0  0  0  0  0  0
    9.8896   41.2269   34.2945 P   0  0  0  0  0  0  0  0  0  0  0  0
   10.3732   41.4568   35.8838 O   0  0  0  0  0  0  0  0  0  0  0  0
    9.9459   45.0736   33.2111 C   0  0  1  0  0  0  0  0  0  0  0  0
   11.0267   46.0291   33.4705 N   0  0  0  0  0  0  0  0  0  0  0  0
    9.7536   44.8537   31.6948 C   0  0  0  0  0  0  0  0  0  0  0  0
    8.7955   45.8407   31.0844 C   0  0  0  0  0  0  0  0  0  0  0  0
    7.4087   45.6008   31.1013 C   0  0  0  0  0  0  0  0  0  0  0  0
    9.2827   46.9879   30.4404 C   0  0  0  0  0  0  0  0  0  0  0  0
    6.5284   46.5017   30.4865 C   0  0  0  0  0  0  0  0  0  0  0  0
    8.4022   47.8897   29.8316 C   0  0  0  0  0  0  0  0  0  0  0  0
    7.0138   47.6500   29.8454 C   0  0  0  0  0  0  0  0  0  0  0  0
    6.0851   48.5148   29.2434 O   0  0  0  0  0  0  0  0  0  0  0  0
    6.4049   49.6463   28.4328 C   0  0  2  0  0  0  0  0  0  0  0  0
    5.1467   50.4858   28.2084 C   0  0  0  0  0  0  0  0  0  0  0  0
    7.0266   49.2258   27.1076 C   0  0  0  0  0  0  0  0  0  0  0  0
    8.2918   49.7677   26.7705 C   0  0  0  0  0  0  0  0  0  0  0  0
    6.3665   48.3619   26.1664 C   0  0  0  0  0  0  0  0  0  0  0  0
    8.8519   49.4419   25.5427 C   0  0  0  0  0  0  0  0  0  0  0  0
    6.9793   48.0804   24.9253 C   0  0  0  0  0  0  0  0  0  0  0  0
    5.0777   47.7902   26.4278 N   0  0  0  0  0  0  0  0  0  0  0  0
   10.0622   49.8497   25.0156 O   0  0  0  0  0  0  0  0  0  0  0  0
    8.2230   48.6352   24.6586 C   0  0  0  0  0  0  0  0  0  0  0  0
    4.1167   47.8151   25.4439 O   0  0  0  0  0  0  0  0  0  0  0  0
    4.9133   47.0370   27.4080 O   0  0  0  0  0  0  0  0  0  0  0  0
   10.2009   49.2577   23.7167 C   0  0  0  0  0  0  0  0  0  0  0  0
    9.0039   48.4907   23.5280 O   0  0  0  0  0  0  0  0  0  0  0  0
    8.8122   40.1844   34.2135 O   0  0  0  0  0  0  0  0  0  0  0  0
   11.2401   40.7950   33.3698 O   0  0  0  0  0  0  0  0  0  0  0  0
   10.9143   40.6914   31.9981 C   0  0  0  0  0  0  0  0  0  0  0  0
   11.5269   39.3912   31.4385 C   0  0  0  0  0  0  0  0  0  0  0  0
   12.7519   39.0911   32.0837 O   0  0  0  0  0  0  0  0  0  0  0  0
   10.6113   38.1932   31.6451 C   0  0  0  0  0  0  0  0  0  0  0  0
   12.9413   37.6838   32.0297 C   0  0  0  0  0  0  0  0  0  0  0  0
    9.6064   38.0878   30.6599 O   0  0  0  0  0  0  0  0  0  0  0  0
   11.5822   37.0197   31.6877 C   0  0  0  0  0  0  0  0  0  0  0  0
   13.4840   37.2105   33.3254 N   0  0  0  0  0  0  0  0  0  0  0  0
   11.6179   36.3072   30.4690 O   0  0  0  0  0  0  0  0  0  0  0  0
   14.4797   36.3309   33.5738 C   0  0  0  0  0  0  0  0  0  0  0  0
   13.1137   37.6269   34.5702 C   0  0  0  0  0  0  0  0  0  0  0  0
   15.2074   35.6152   32.6747 N   0  0  0  0  0  0  0  0  0  0  0  0
   14.6756   36.2298   34.9190 C   0  0  0  0  0  0  0  0  0  0  0  0
   13.8217   37.0445   35.5793 N   0  0  0  0  0  0  0  0  0  0  0  0
   16.1643   34.7603   33.1551 C   0  0  0  0  0  0  0  0  0  0  0  0
   15.6528   35.3503   35.4136 C   0  0  0  0  0  0  0  0  0  0  0  0
   16.3798   34.6316   34.5046 N   0  0  0  0  0  0  0  0  0  0  0  0
   15.9004   35.1930   36.8094 N   0  0  0  0  0  0  0  0  0  0  0  0
    8.9995   45.4383   33.6721 H   0  0  0  0  0  0  0  0  0  0  0  0
   10.7764   46.9368   33.0155 H   0  0  0  0  0  0  0  0  0  0  0  0
   11.0504   46.2277   34.4979 H   0  0  0  0  0  0  0  0  0  0  0  0
    9.3637   43.8350   31.4714 H   0  0  0  0  0  0  0  0  0  0  0  0
   10.7407   44.9069   31.1833 H   0  0  0  0  0  0  0  0  0  0  0  0
    7.0130   44.7167   31.5858 H   0  0  0  0  0  0  0  0  0  0  0  0
   10.3468   47.1879   30.4095 H   0  0  0  0  0  0  0  0  0  0  0  0
    5.4641   46.3041   30.5052 H   0  0  0  0  0  0  0  0  0  0  0  0
    8.8148   48.7681   29.3596 H   0  0  0  0  0  0  0  0  0  0  0  0
    7.1054   50.2969   29.0023 H   0  0  0  0  0  0  0  0  0  0  0  0
    5.3766   51.3548   27.5553 H   0  0  0  0  0  0  0  0  0  0  0  0
    4.3370   49.8874   27.7442 H   0  0  0  0  0  0  0  0  0  0  0  0
    4.7763   50.8686   29.1831 H   0  0  0  0  0  0  0  0  0  0  0  0
    8.8218   50.4339   27.4395 H   0  0  0  0  0  0  0  0  0  0  0  0
    6.5024   47.4377   24.1964 H   0  0  0  0  0  0  0  0  0  0  0  0
   11.0899   48.5933   23.6903 H   0  0  0  0  0  0  0  0  0  0  0  0
   10.2759   50.0479   22.9406 H   0  0  0  0  0  0  0  0  0  0  0  0
    9.8233   40.7200   31.7652 H   0  0  0  0  0  0  0  0  0  0  0  0
   11.3775   41.5548   31.4741 H   0  0  0  0  0  0  0  0  0  0  0  0
   11.7312   39.5362   30.3532 H   0  0  0  0  0  0  0  0  0  0  0  0
   10.1202   38.2696   32.6410 H   0  0  0  0  0  0  0  0  0  0  0  0
   13.6850   37.4639   31.2321 H   0  0  0  0  0  0  0  0  0  0  0  0
   10.0251   38.1792   29.7654 H   0  0  0  0  0  0  0  0  0  0  0  0
   11.2757   36.3135   32.4907 H   0  0  0  0  0  0  0  0  0  0  0  0
   11.9838   36.9111   29.7708 H   0  0  0  0  0  0  0  0  0  0  0  0
   12.3307   38.3536   34.7458 H   0  0  0  0  0  0  0  0  0  0  0  0
   16.7566   34.1787   32.4623 H   0  0  0  0  0  0  0  0  0  0  0  0
   15.3535   35.7355   37.5144 H   0  0  0  0  0  0  0  0  0  0  0  0
   16.6353   34.5301   37.1419 H   0  0  0  0  0  0  0  0  0  0  0  0
  1  2  2  0
  1  3  1  0
  3  4  1  0
  4  5  1  0
  6  1  1  0
  7  6  1  0
  6  8  1  0
  8  9  1  0
  9 10  2  0
 11  9  1  0
 10 12  1  0
 13 11  2  0
 12 14  2  0
 14 13  1  0
 14 15  1  0
 15 16  1  0
 16 17  1  0
 16 18  1  0
 18 19  2  0
 20 18  1  0
 19 21  1  0
 22 20  2  0
 20 23  1  0
 21 24  1  0
 21 25  2  0
 25 22  1  0
 23 26  1  0
 23 27  2  0
 24 28  1  0
 25 29  1  0
 28 29  1  0
  4 30  2  0
  4 31  1  0
 32 31  1  0
 32 33  1  0
 33 34  1  0
 33 35  1  0
 34 36  1  0
 35 37  1  0
 35 38  1  0
 38 36  1  0
 36 39  1  0
 38 40  1  0
 41 39  1  0
 42 39  1  0
 43 41  2  0
 41 44  1  0
 45 42  2  0
 46 43  1  0
 44 47  2  0
 44 45  1  0
 48 46  2  0
 48 47  1  0
 47 49  1  0
  6 50  1  1
  7 51  1  0
  7 52  1  0
  8 53  1  0
  8 54  1  0
 10 55  1  0
 11 56  1  0
 12 57  1  0
 13 58  1  0
 16 59  1  1
 17 60  1  0
 17 61  1  0
 17 62  1  0
 19 63  1  0
 22 64  1  0
 28 65  1  0
 28 66  1  0
 32 67  1  0
 32 68  1  0
 33 69  1  0
 35 70  1  0
 36 71  1  0
 37 72  1  0
 38 73  1  0
 40 74  1  0
 42 75  1  0
 46 76  1  0
 49 77  1  0
 49 78  1  0
M  CHG  3   5  -1  23   1  26  -1
M  END
>  <EmbedRMS>  (2) 
0.0806635467644

$$$$

     RDKit          3D

 78 83  0  0  0  0  0  0  0  0999 V2000
   10.2835   43.7662   33.8257 C   0  0  0  0  0  0  0  0  0  0  0  0
   11.4102   43.5931   34.3753 O   0  0  0  0  0  0  0  0  0  0  0  0
    9.3637   42.7255   33.7352 O   0  0  0  0  0  0  0  0  0  0  0  0
    9.8903   41.2268   34.2947 P   0  0  0  0  0  0  0  0  0  0  0  0
   10.3728   41.4562   35.8843 O   0  0  0  0  0  0  0  0  0  0  0  0
    9.9547   45.0695   33.2035 C   0  0  1  0  0  0  0  0  0  0  0  0
   11.0272   46.0323   33.4759 N   0  0  0  0  0  0  0  0  0  0  0  0
    9.7470   44.8483   31.6875 C   0  0  0  0  0  0  0  0  0  0  0  0
    8.7925   45.8409   31.0844 C   0  0  0  0  0  0  0  0  0  0  0  0
    7.4058   45.6007   31.0990 C   0  0  0  0  0  0  0  0  0  0  0  0
    9.2818   46.9875   30.4413 C   0  0  0  0  0  0  0  0  0  0  0  0
    6.5246   46.5006   30.4843 C   0  0  0  0  0  0  0  0  0  0  0  0
    8.4006   47.8879   29.8316 C   0  0  0  0  0  0  0  0  0  0  0  0
    7.0187   47.6580   29.8481 C   0  0  0  0  0  0  0  0  0  0  0  0
    6.1812   48.5991   29.2271 O   0  0  0  0  0  0  0  0  0  0  0  0
    4.7513   48.5665   29.2371 C   0  0  2  0  0  0  0  0  0  0  0  0
    4.2290   49.6304   28.2734 C   0  0  0  0  0  0  0  0  0  0  0  0
    4.2206   48.8285   30.6369 C   0  0  0  0  0  0  0  0  0  0  0  0
    4.8171   49.8591   31.4043 C   0  0  0  0  0  0  0  0  0  0  0  0
    3.1779   48.0339   31.2201 C   0  0  0  0  0  0  0  0  0  0  0  0
    4.3959   50.0390   32.7149 C   0  0  0  0  0  0  0  0  0  0  0  0
    2.8033   48.2525   32.5650 C   0  0  0  0  0  0  0  0  0  0  0  0
    2.4864   47.0231   30.4703 N   0  0  0  0  0  0  0  0  0  0  0  0
    4.8412   50.9622   33.6412 O   0  0  0  0  0  0  0  0  0  0  0  0
    3.4357   49.2662   33.2724 C   0  0  0  0  0  0  0  0  0  0  0  0
    2.0753   45.8693   31.0969 O   0  0  0  0  0  0  0  0  0  0  0  0
    2.0501   47.2760   29.3287 O   0  0  0  0  0  0  0  0  0  0  0  0
    4.1112   50.7551   34.8582 C   0  0  0  0  0  0  0  0  0  0  0  0
    3.2246   49.6629   34.5788 O   0  0  0  0  0  0  0  0  0  0  0  0
    8.8125   40.1848   34.2125 O   0  0  0  0  0  0  0  0  0  0  0  0
   11.2416   40.7948   33.3707 O   0  0  0  0  0  0  0  0  0  0  0  0
   10.9178   40.6921   31.9985 C   0  0  0  0  0  0  0  0  0  0  0  0
   11.5175   39.3837   31.4424 C   0  0  0  0  0  0  0  0  0  0  0  0
   12.7508   39.0887   32.0752 O   0  0  0  0  0  0  0  0  0  0  0  0
   10.6028   38.1915   31.6658 C   0  0  0  0  0  0  0  0  0  0  0  0
   12.9385   37.6818   32.0278 C   0  0  0  0  0  0  0  0  0  0  0  0
    9.6372   38.0805   30.6469 O   0  0  0  0  0  0  0  0  0  0  0  0
   11.5780   37.0215   31.6935 C   0  0  0  0  0  0  0  0  0  0  0  0
   13.4845   37.2120   33.3242 N   0  0  0  0  0  0  0  0  0  0  0  0
   11.6095   36.3200   30.4679 O   0  0  0  0  0  0  0  0  0  0  0  0
   14.4798   36.3318   33.5730 C   0  0  0  0  0  0  0  0  0  0  0  0
   13.1136   37.6278   34.5691 C   0  0  0  0  0  0  0  0  0  0  0  0
   15.2073   35.6155   32.6743 N   0  0  0  0  0  0  0  0  0  0  0  0
   14.6755   36.2305   34.9184 C   0  0  0  0  0  0  0  0  0  0  0  0
   13.8213   37.0452   35.5785 N   0  0  0  0  0  0  0  0  0  0  0  0
   16.1640   34.7604   33.1549 C   0  0  0  0  0  0  0  0  0  0  0  0
   15.6525   35.3507   35.4132 C   0  0  0  0  0  0  0  0  0  0  0  0
   16.3794   34.6318   34.5044 N   0  0  0  0  0  0  0  0  0  0  0  0
   15.9000   35.1934   36.8091 N   0  0  0  0  0  0  0  0  0  0  0  0
    9.0119   45.4316   33.6712 H   0  0  0  0  0  0  0  0  0  0  0  0
   10.7257   46.9688   33.1214 H   0  0  0  0  0  0  0  0  0  0  0  0
   11.8907   45.7662   32.9476 H   0  0  0  0  0  0  0  0  0  0  0  0
   10.7234   44.8822   31.1556 H   0  0  0  0  0  0  0  0  0  0  0  0
    9.3422   43.8330   31.4760 H   0  0  0  0  0  0  0  0  0  0  0  0
    7.0101   44.7149   31.5805 H   0  0  0  0  0  0  0  0  0  0  0  0
   10.3461   47.1855   30.4092 H   0  0  0  0  0  0  0  0  0  0  0  0
    5.4668   46.2825   30.5096 H   0  0  0  0  0  0  0  0  0  0  0  0
    8.7939   48.7706   29.3435 H   0  0  0  0  0  0  0  0  0  0  0  0
    4.4275   47.5782   28.8513 H   0  0  0  0  0  0  0  0  0  0  0  0
    3.1182   49.6296   28.2610 H   0  0  0  0  0  0  0  0  0  0  0  0
    4.5869   50.6390   28.5721 H   0  0  0  0  0  0  0  0  0  0  0  0
    4.5928   49.4160   27.2461 H   0  0  0  0  0  0  0  0  0  0  0  0
    5.6015   50.4854   30.9985 H   0  0  0  0  0  0  0  0  0  0  0  0
    2.0245   47.6664   33.0357 H   0  0  0  0  0  0  0  0  0  0  0  0
    4.8054   50.4842   35.6811 H   0  0  0  0  0  0  0  0  0  0  0  0
    3.5294   51.6646   35.1164 H   0  0  0  0  0  0  0  0  0  0  0  0
   11.3948   41.5478   31.4744 H   0  0  0  0  0  0  0  0  0  0  0  0
    9.8289   40.7405   31.7629 H   0  0  0  0  0  0  0  0  0  0  0  0
   11.6980   39.5116   30.3501 H   0  0  0  0  0  0  0  0  0  0  0  0
   10.1117   38.2602   32.6659 H   0  0  0  0  0  0  0  0  0  0  0  0
   13.6767   37.4554   31.2268 H   0  0  0  0  0  0  0  0  0  0  0  0
    8.8962   38.6951   30.8870 H   0  0  0  0  0  0  0  0  0  0  0  0
   11.2792   36.3073   32.4924 H   0  0  0  0  0  0  0  0  0  0  0  0
   11.8830   36.9596   29.7589 H   0  0  0  0  0  0  0  0  0  0  0  0
   12.3300   38.3538   34.7445 H   0  0  0  0  0  0  0  0  0  0  0  0
   16.7563   34.1786   32.4622 H   0  0  0  0  0  0  0  0  0  0  0  0
   16.6347   34.5303   37.1416 H   0  0  0  0  0  0  0  0  0  0  0  0
   15.3531   35.7361   37.5140 H   0  0  0  0  0  0  0  0  0  0  0  0
  1  2  2  0
  1  3  1  0
  3  4  1  0
  4  5  1  0
  6  1  1  0
  7  6  1  0
  6  8  1  0
  8  9  1  0
  9 10  2  0
 11  9  1  0
 10 12  1  0
 13 11  2  0
 12 14  2  0
 14 13  1  0
 14 15  1  0
 15 16  1  0
 16 17  1  0
 16 18  1  0
 18 19  2  0
 20 18  1  0
 19 21  1  0
 22 20  2  0
 20 23  1  0
 21 24  1  0
 21 25  2  0
 25 22  1  0
 23 26  1  0
 23 27  2  0
 24 28  1  0
 25 29  1  0
 28 29  1  0
  4 30  2  0
  4 31  1  0
 32 31  1  0
 32 33  1  0
 33 34  1  0
 33 35  1  0
 34 36  1  0
 35 37  1  0
 35 38  1  0
 38 36  1  0
 36 39  1  0
 38 40  1  0
 41 39  1  0
 42 39  1  0
 43 41  2  0
 41 44  1  0
 45 42  2  0
 46 43  1  0
 44 47  2  0
 44 45  1  0
 48 46  2  0
 48 47  1  0
 47 49  1  0
  6 50  1  1
  7 51  1  0
  7 52  1  0
  8 53  1  0
  8 54  1  0
 10 55  1  0
 11 56  1  0
 12 57  1  0
 13 58  1  0
 16 59  1  6
 17 60  1  0
 17 61  1  0
 17 62  1  0
 19 63  1  0
 22 64  1  0
 28 65  1  0
 28 66  1  0
 32 67  1  0
 32 68  1  0
 33 69  1  0
 35 70  1  0
 36 71  1  0
 37 72  1  0
 38 73  1  0
 40 74  1  0
 42 75  1  0
 46 76  1  0
 49 77  1  0
 49 78  1  0
M  CHG  3   5  -1  23   1  26  -1
M  END
>  <EmbedRMS>  (3) 
0.0819663740279

$$$$

     RDKit          3D

 78 83  0  0  0  0  0  0  0  0999 V2000
   10.2804   43.7664   33.8250 C   0  0  0  0  0  0  0  0  0  0  0  0
   11.4111   43.5919   34.3667 O   0  0  0  0  0  0  0  0  0  0  0  0
    9.3618   42.7250   33.7346 O   0  0  0  0  0  0  0  0  0  0  0  0
    9.8899   41.2267   34.2940 P   0  0  0  0  0  0  0  0  0  0  0  0
   10.3735   41.4567   35.8833 O   0  0  0  0  0  0  0  0  0  0  0  0
    9.9459   45.0736   33.2112 C   0  0  1  0  0  0  0  0  0  0  0  0
   11.0267   46.0292   33.4705 N   0  0  0  0  0  0  0  0  0  0  0  0
    9.7532   44.8539   31.6950 C   0  0  0  0  0  0  0  0  0  0  0  0
    8.7953   45.8412   31.0850 C   0  0  0  0  0  0  0  0  0  0  0  0
    7.4084   45.6010   31.1012 C   0  0  0  0  0  0  0  0  0  0  0  0
    9.2829   46.9881   30.4407 C   0  0  0  0  0  0  0  0  0  0  0  0
    6.5281   46.5012   30.4854 C   0  0  0  0  0  0  0  0  0  0  0  0
    8.4027   47.8897   29.8314 C   0  0  0  0  0  0  0  0  0  0  0  0
    7.0139   47.6497   29.8455 C   0  0  0  0  0  0  0  0  0  0  0  0
    6.0880   48.5108   29.2331 O   0  0  0  0  0  0  0  0  0  0  0  0
    6.4198   49.6855   28.4895 C   0  0  2  0  0  0  0  0  0  0  0  0
    5.1564   50.4997   28.2131 C   0  0  0  0  0  0  0  0  0  0  0  0
    7.1437   49.3643   27.1897 C   0  0  0  0  0  0  0  0  0  0  0  0
    8.0925   50.3093   26.7295 C   0  0  0  0  0  0  0  0  0  0  0  0
    6.9512   48.1477   26.4464 C   0  0  0  0  0  0  0  0  0  0  0  0
    8.8269   50.0163   25.5886 C   0  0  0  0  0  0  0  0  0  0  0  0
    7.7405   47.8999   25.2996 C   0  0  0  0  0  0  0  0  0  0  0  0
    5.9842   47.1592   26.8343 N   0  0  0  0  0  0  0  0  0  0  0  0
    9.8012   50.7797   24.9747 O   0  0  0  0  0  0  0  0  0  0  0  0
    8.6613   48.8609   24.9064 C   0  0  0  0  0  0  0  0  0  0  0  0
    4.6807   47.5200   27.0798 O   0  0  0  0  0  0  0  0  0  0  0  0
    6.2659   45.9462   26.7468 O   0  0  0  0  0  0  0  0  0  0  0  0
   10.2766   50.0545   23.8325 C   0  0  0  0  0  0  0  0  0  0  0  0
    9.5219   48.8350   23.8258 O   0  0  0  0  0  0  0  0  0  0  0  0
    8.8123   40.1844   34.2134 O   0  0  0  0  0  0  0  0  0  0  0  0
   11.2402   40.7944   33.3688 O   0  0  0  0  0  0  0  0  0  0  0  0
   10.9142   40.6897   31.9970 C   0  0  0  0  0  0  0  0  0  0  0  0
   11.5261   39.3884   31.4375 C   0  0  0  0  0  0  0  0  0  0  0  0
   12.7504   39.0888   32.0815 O   0  0  0  0  0  0  0  0  0  0  0  0
   10.6114   38.1909   31.6460 C   0  0  0  0  0  0  0  0  0  0  0  0
   12.9357   37.6812   32.0303 C   0  0  0  0  0  0  0  0  0  0  0  0
    9.6145   38.0858   30.6534 O   0  0  0  0  0  0  0  0  0  0  0  0
   11.5769   37.0148   31.7012 C   0  0  0  0  0  0  0  0  0  0  0  0
   13.4849   37.2111   33.3247 N   0  0  0  0  0  0  0  0  0  0  0  0
   11.6192   36.3260   30.4724 O   0  0  0  0  0  0  0  0  0  0  0  0
   14.4802   36.3313   33.5730 C   0  0  0  0  0  0  0  0  0  0  0  0
   13.1141   37.6269   34.5698 C   0  0  0  0  0  0  0  0  0  0  0  0
   15.2074   35.6150   32.6740 N   0  0  0  0  0  0  0  0  0  0  0  0
   14.6761   36.2301   34.9184 C   0  0  0  0  0  0  0  0  0  0  0  0
   13.8221   37.0445   35.5788 N   0  0  0  0  0  0  0  0  0  0  0  0
   16.1642   34.7599   33.1547 C   0  0  0  0  0  0  0  0  0  0  0  0
   15.6531   35.3504   35.4131 C   0  0  0  0  0  0  0  0  0  0  0  0
   16.3798   34.6314   34.5041 N   0  0  0  0  0  0  0  0  0  0  0  0
   15.9006   35.1929   36.8090 N   0  0  0  0  0  0  0  0  0  0  0  0
    8.9997   45.4381   33.6724 H   0  0  0  0  0  0  0  0  0  0  0  0
   10.7764   46.9369   33.0156 H   0  0  0  0  0  0  0  0  0  0  0  0
   11.0506   46.2277   34.4979 H   0  0  0  0  0  0  0  0  0  0  0  0
    9.3630   43.8354   31.4715 H   0  0  0  0  0  0  0  0  0  0  0  0
   10.7401   44.9070   31.1832 H   0  0  0  0  0  0  0  0  0  0  0  0
    7.0127   44.7167   31.5852 H   0  0  0  0  0  0  0  0  0  0  0  0
   10.3471   47.1867   30.4076 H   0  0  0  0  0  0  0  0  0  0  0  0
    5.4640   46.3023   30.5009 H   0  0  0  0  0  0  0  0  0  0  0  0
    8.8157   48.7635   29.3482 H   0  0  0  0  0  0  0  0  0  0  0  0
    7.0686   50.3223   29.1322 H   0  0  0  0  0  0  0  0  0  0  0  0
    4.4657   49.9596   27.5354 H   0  0  0  0  0  0  0  0  0  0  0  0
    4.6279   50.7079   29.1675 H   0  0  0  0  0  0  0  0  0  0  0  0
    5.4245   51.4704   27.7433 H   0  0  0  0  0  0  0  0  0  0  0  0
    8.2645   51.2398   27.2560 H   0  0  0  0  0  0  0  0  0  0  0  0
    7.6252   46.9914   24.7226 H   0  0  0  0  0  0  0  0  0  0  0  0
   10.0822   50.6305   22.9036 H   0  0  0  0  0  0  0  0  0  0  0  0
   11.3594   49.8344   23.9407 H   0  0  0  0  0  0  0  0  0  0  0  0
   11.3775   41.5525   31.4723 H   0  0  0  0  0  0  0  0  0  0  0  0
    9.8232   40.7188   31.7644 H   0  0  0  0  0  0  0  0  0  0  0  0
   11.7284   39.5311   30.3514 H   0  0  0  0  0  0  0  0  0  0  0  0
   10.1127   38.2734   32.6376 H   0  0  0  0  0  0  0  0  0  0  0  0
   13.6692   37.4565   31.2242 H   0  0  0  0  0  0  0  0  0  0  0  0
   10.0533   38.1120   29.7636 H   0  0  0  0  0  0  0  0  0  0  0  0
   11.2606   36.3148   32.5102 H   0  0  0  0  0  0  0  0  0  0  0  0
   12.1496   35.5023   30.6325 H   0  0  0  0  0  0  0  0  0  0  0  0
   12.3303   38.3526   34.7455 H   0  0  0  0  0  0  0  0  0  0  0  0
   16.7561   34.1778   32.4619 H   0  0  0  0  0  0  0  0  0  0  0  0
   15.3538   35.7356   37.5139 H   0  0  0  0  0  0  0  0  0  0  0  0
   16.6353   34.5298   37.1415 H   0  0  0  0  0  0  0  0  0  0  0  0
  1  2  2  0
  1  3  1  0
  3  4  1  0
  4  5  1  0
  6  1  1  0
  7  6  1  0
  6  8  1  0
  8  9  1  0
  9 10  2  0
 11  9  1  0
 10 12  1  0
 13 11  2  0
 12 14  2  0
 14 13  1  0
 14 15  1  0
 15 16  1  0
 16 17  1  0
 16 18  1  0
 18 19  2  0
 20 18  1  0
 19 21  1  0
 22 20  2  0
 20 23  1  0
 21 24  1  0
 21 25  2  0
 25 22  1  0
 23 26  1  0
 23 27  2  0
 24 28  1  0
 25 29  1  0
 28 29  1  0
  4 30  2  0
  4 31  1  0
 32 31  1  0
 32 33  1  0
 33 34  1  0
 33 35  1  0
 34 36  1  0
 35 37  1  0
 35 38  1  0
 38 36  1  0
 36 39  1  0
 38 40  1  0
 41 39  1  0
 42 39  1  0
 43 41  2  0
 41 44  1  0
 45 42  2  0
 46 43  1  0
 44 47  2  0
 44 45  1  0
 48 46  2  0
 48 47  1  0
 47 49  1  0
  6 50  1  1
  7 51  1  0
  7 52  1  0
  8 53  1  0
  8 54  1  0
 10 55  1  0
 11 56  1  0
 12 57  1  0
 13 58  1  0
 16 59  1  1
 17 60  1  0
 17 61  1  0
 17 62  1  0
 19 63  1  0
 22 64  1  0
 28 65  1  0
 28 66  1  0
 32 67  1  0
 32 68  1  0
 33 69  1  0
 35 70  1  0
 36 71  1  0
 37 72  1  0
 38 73  1  0
 40 74  1  0
 42 75  1  0
 46 76  1  0
 49 77  1  0
 49 78  1  0
M  CHG  3   5  -1  23   1  26  -1
M  END
>  <EmbedRMS>  (4) 
0.0814513409163

$$$$

     RDKit          3D

 78 83  0  0  0  0  0  0  0  0999 V2000
   10.2803   43.7664   33.8249 C   0  0  0  0  0  0  0  0  0  0  0  0
   11.4110   43.5918   34.3666 O   0  0  0  0  0  0  0  0  0  0  0  0
    9.3618   42.7250   33.7344 O   0  0  0  0  0  0  0  0  0  0  0  0
    9.8902   41.2265   34.2931 P   0  0  0  0  0  0  0  0  0  0  0  0
   10.3743   41.4563   35.8823 O   0  0  0  0  0  0  0  0  0  0  0  0
    9.9460   45.0736   33.2110 C   0  0  1  0  0  0  0  0  0  0  0  0
   11.0267   46.0292   33.4708 N   0  0  0  0  0  0  0  0  0  0  0  0
    9.7542   44.8540   31.6947 C   0  0  0  0  0  0  0  0  0  0  0  0
    8.7959   45.8409   31.0843 C   0  0  0  0  0  0  0  0  0  0  0  0
    7.4092   45.6003   31.1013 C   0  0  0  0  0  0  0  0  0  0  0  0
    9.2824   46.9879   30.4400 C   0  0  0  0  0  0  0  0  0  0  0  0
    6.5256   46.4995   30.4875 C   0  0  0  0  0  0  0  0  0  0  0  0
    8.3995   47.8876   29.8323 C   0  0  0  0  0  0  0  0  0  0  0  0
    7.0180   47.6541   29.8440 C   0  0  0  0  0  0  0  0  0  0  0  0
    6.1855   48.5956   29.2162 O   0  0  0  0  0  0  0  0  0  0  0  0
    4.7817   48.4608   28.9883 C   0  0  2  0  0  0  0  0  0  0  0  0
    4.4926   47.4197   27.8979 C   0  0  0  0  0  0  0  0  0  0  0  0
    4.1890   49.8150   28.6291 C   0  0  0  0  0  0  0  0  0  0  0  0
    3.1854   50.3437   29.4798 C   0  0  0  0  0  0  0  0  0  0  0  0
    4.5645   50.5553   27.4531 C   0  0  0  0  0  0  0  0  0  0  0  0
    2.5861   51.5484   29.1376 C   0  0  0  0  0  0  0  0  0  0  0  0
    3.9057   51.7680   27.1501 C   0  0  0  0  0  0  0  0  0  0  0  0
    5.5821   50.0973   26.5510 N   0  0  0  0  0  0  0  0  0  0  0  0
    1.5944   52.2357   29.8109 O   0  0  0  0  0  0  0  0  0  0  0  0
    2.9285   52.2286   28.0208 C   0  0  0  0  0  0  0  0  0  0  0  0
    5.3853   50.2107   25.1942 O   0  0  0  0  0  0  0  0  0  0  0  0
    6.7285   49.8435   26.9716 O   0  0  0  0  0  0  0  0  0  0  0  0
    1.2971   53.4250   29.0666 C   0  0  0  0  0  0  0  0  0  0  0  0
    2.1716   53.3810   27.9309 O   0  0  0  0  0  0  0  0  0  0  0  0
    8.8123   40.1844   34.2130 O   0  0  0  0  0  0  0  0  0  0  0  0
   11.2401   40.7949   33.3666 O   0  0  0  0  0  0  0  0  0  0  0  0
   10.9124   40.6859   31.9952 C   0  0  0  0  0  0  0  0  0  0  0  0
   11.5175   39.3786   31.4405 C   0  0  0  0  0  0  0  0  0  0  0  0
   12.7490   39.0864   32.0753 O   0  0  0  0  0  0  0  0  0  0  0  0
   10.6060   38.1867   31.6656 C   0  0  0  0  0  0  0  0  0  0  0  0
   12.9355   37.6796   32.0292 C   0  0  0  0  0  0  0  0  0  0  0  0
    9.6399   38.0902   30.6471 O   0  0  0  0  0  0  0  0  0  0  0  0
   11.5765   37.0145   31.7044 C   0  0  0  0  0  0  0  0  0  0  0  0
   13.4858   37.2125   33.3244 N   0  0  0  0  0  0  0  0  0  0  0  0
   11.6101   36.3397   30.4673 O   0  0  0  0  0  0  0  0  0  0  0  0
   14.4805   36.3319   33.5729 C   0  0  0  0  0  0  0  0  0  0  0  0
   13.1143   37.6276   34.5694 C   0  0  0  0  0  0  0  0  0  0  0  0
   15.2076   35.6153   32.6741 N   0  0  0  0  0  0  0  0  0  0  0  0
   14.6760   36.2304   34.9184 C   0  0  0  0  0  0  0  0  0  0  0  0
   13.8219   37.0449   35.5786 N   0  0  0  0  0  0  0  0  0  0  0  0
   16.1641   34.7600   33.1548 C   0  0  0  0  0  0  0  0  0  0  0  0
   15.6528   35.3505   35.4132 C   0  0  0  0  0  0  0  0  0  0  0  0
   16.3795   34.6314   34.5043 N   0  0  0  0  0  0  0  0  0  0  0  0
   15.9002   35.1931   36.8091 N   0  0  0  0  0  0  0  0  0  0  0  0
    8.9995   45.4382   33.6719 H   0  0  0  0  0  0  0  0  0  0  0  0
   11.0501   46.2277   34.4982 H   0  0  0  0  0  0  0  0  0  0  0  0
   10.7765   46.9369   33.0158 H   0  0  0  0  0  0  0  0  0  0  0  0
   10.7414   44.9078   31.1835 H   0  0  0  0  0  0  0  0  0  0  0  0
    9.3648   43.8353   31.4709 H   0  0  0  0  0  0  0  0  0  0  0  0
    7.0152   44.7168   31.5886 H   0  0  0  0  0  0  0  0  0  0  0  0
   10.3462   47.1882   30.4062 H   0  0  0  0  0  0  0  0  0  0  0  0
    5.4682   46.2845   30.5309 H   0  0  0  0  0  0  0  0  0  0  0  0
    8.7919   48.7699   29.3425 H   0  0  0  0  0  0  0  0  0  0  0  0
    4.3034   48.1041   29.9261 H   0  0  0  0  0  0  0  0  0  0  0  0
    3.4093   47.4154   27.6511 H   0  0  0  0  0  0  0  0  0  0  0  0
    5.0728   47.6246   26.9765 H   0  0  0  0  0  0  0  0  0  0  0  0
    4.7665   46.4044   28.2498 H   0  0  0  0  0  0  0  0  0  0  0  0
    2.8681   49.8270   30.3767 H   0  0  0  0  0  0  0  0  0  0  0  0
    4.1620   52.3422   26.2690 H   0  0  0  0  0  0  0  0  0  0  0  0
    1.5107   54.3254   29.6800 H   0  0  0  0  0  0  0  0  0  0  0  0
    0.2376   53.4159   28.7351 H   0  0  0  0  0  0  0  0  0  0  0  0
    9.8214   40.7199   31.7634 H   0  0  0  0  0  0  0  0  0  0  0  0
   11.3802   41.5436   31.4660 H   0  0  0  0  0  0  0  0  0  0  0  0
   11.6999   39.5040   30.3482 H   0  0  0  0  0  0  0  0  0  0  0  0
   10.1085   38.2766   32.6603 H   0  0  0  0  0  0  0  0  0  0  0  0
   13.6680   37.4521   31.2229 H   0  0  0  0  0  0  0  0  0  0  0  0
    9.0016   37.3867   30.9349 H   0  0  0  0  0  0  0  0  0  0  0  0
   11.2667   36.3062   32.5084 H   0  0  0  0  0  0  0  0  0  0  0  0
   12.1389   35.5126   30.6150 H   0  0  0  0  0  0  0  0  0  0  0  0
   12.3300   38.3529   34.7449 H   0  0  0  0  0  0  0  0  0  0  0  0
   16.7560   34.1779   32.4621 H   0  0  0  0  0  0  0  0  0  0  0  0
   16.6347   34.5298   37.1416 H   0  0  0  0  0  0  0  0  0  0  0  0
   15.3534   35.7359   37.5140 H   0  0  0  0  0  0  0  0  0  0  0  0
  1  2  2  0
  1  3  1  0
  3  4  1  0
  4  5  1  0
  6  1  1  0
  7  6  1  0
  6  8  1  0
  8  9  1  0
  9 10  2  0
 11  9  1  0
 10 12  1  0
 13 11  2  0
 12 14  2  0
 14 13  1  0
 14 15  1  0
 15 16  1  0
 16 17  1  0
 16 18  1  0
 18 19  2  0
 20 18  1  0
 19 21  1  0
 22 20  2  0
 20 23  1  0
 21 24  1  0
 21 25  2  0
 25 22  1  0
 23 26  1  0
 23 27  2  0
 24 28  1  0
 25 29  1  0
 28 29  1  0
  4 30  2  0
  4 31  1  0
 32 31  1  0
 32 33  1  0
 33 34  1  0
 33 35  1  0
 34 36  1  0
 35 37  1  0
 35 38  1  0
 38 36  1  0
 36 39  1  0
 38 40  1  0
 41 39  1  0
 42 39  1  0
 43 41  2  0
 41 44  1  0
 45 42  2  0
 46 43  1  0
 44 47  2  0
 44 45  1  0
 48 46  2  0
 48 47  1  0
 47 49  1  0
  6 50  1  1
  7 51  1  0
  7 52  1  0
  8 53  1  0
  8 54  1  0
 10 55  1  0
 11 56  1  0
 12 57  1  0
 13 58  1  0
 16 59  1  1
 17 60  1  0
 17 61  1  0
 17 62  1  0
 19 63  1  0
 22 64  1  0
 28 65  1  0
 28 66  1  0
 32 67  1  0
 32 68  1  0
 33 69  1  0
 35 70  1  0
 36 71  1  0
 37 72  1  0
 38 73  1  0
 40 74  1  0
 42 75  1  0
 46 76  1  0
 49 77  1  0
 49 78  1  0
M  CHG  3   5  -1  23   1  26  -1
M  END
>  <EmbedRMS>  (5) 
0.0822122668954

$$$$

     RDKit          3D

 78 83  0  0  0  0  0  0  0  0999 V2000
   10.2835   43.7662   33.8256 C   0  0  0  0  0  0  0  0  0  0  0  0
   11.4102   43.5930   34.3753 O   0  0  0  0  0  0  0  0  0  0  0  0
    9.3638   42.7255   33.7349 O   0  0  0  0  0  0  0  0  0  0  0  0
    9.8903   41.2267   34.2942 P   0  0  0  0  0  0  0  0  0  0  0  0
   10.3735   41.4561   35.8837 O   0  0  0  0  0  0  0  0  0  0  0  0
    9.9548   45.0695   33.2035 C   0  0  1  0  0  0  0  0  0  0  0  0
   11.0274   46.0322   33.4759 N   0  0  0  0  0  0  0  0  0  0  0  0
    9.7472   44.8483   31.6875 C   0  0  0  0  0  0  0  0  0  0  0  0
    8.7927   45.8407   31.0841 C   0  0  0  0  0  0  0  0  0  0  0  0
    7.4061   45.6014   31.0997 C   0  0  0  0  0  0  0  0  0  0  0  0
    9.2817   46.9880   30.4426 C   0  0  0  0  0  0  0  0  0  0  0  0
    6.5241   46.5014   30.4858 C   0  0  0  0  0  0  0  0  0  0  0  0
    8.4003   47.8884   29.8334 C   0  0  0  0  0  0  0  0  0  0  0  0
    7.0184   47.6560   29.8433 C   0  0  0  0  0  0  0  0  0  0  0  0
    6.1872   48.5975   29.2136 O   0  0  0  0  0  0  0  0  0  0  0  0
    4.7768   48.4741   29.0114 C   0  0  2  0  0  0  0  0  0  0  0  0
    4.4825   47.4528   27.9043 C   0  0  0  0  0  0  0  0  0  0  0  0
    4.2180   49.8353   28.6356 C   0  0  0  0  0  0  0  0  0  0  0  0
    4.7381   50.4866   27.4891 C   0  0  0  0  0  0  0  0  0  0  0  0
    3.1580   50.4622   29.3730 C   0  0  0  0  0  0  0  0  0  0  0  0
    4.1714   51.6913   27.0940 C   0  0  0  0  0  0  0  0  0  0  0  0
    2.6089   51.6796   28.9123 C   0  0  0  0  0  0  0  0  0  0  0  0
    2.6458   49.8997   30.5887 N   0  0  0  0  0  0  0  0  0  0  0  0
    4.5070   52.4852   26.0141 O   0  0  0  0  0  0  0  0  0  0  0  0
    3.1477   52.2593   27.7717 C   0  0  0  0  0  0  0  0  0  0  0  0
    1.2909   49.9156   30.8259 O   0  0  0  0  0  0  0  0  0  0  0  0
    3.4206   49.6645   31.5388 O   0  0  0  0  0  0  0  0  0  0  0  0
    3.6365   53.6250   26.0157 C   0  0  0  0  0  0  0  0  0  0  0  0
    2.7848   53.4410   27.1548 O   0  0  0  0  0  0  0  0  0  0  0  0
    8.8121   40.1850   34.2131 O   0  0  0  0  0  0  0  0  0  0  0  0
   11.2407   40.7939   33.3694 O   0  0  0  0  0  0  0  0  0  0  0  0
   10.9151   40.6905   31.9974 C   0  0  0  0  0  0  0  0  0  0  0  0
   11.5252   39.3886   31.4375 C   0  0  0  0  0  0  0  0  0  0  0  0
   12.7500   39.0874   32.0799 O   0  0  0  0  0  0  0  0  0  0  0  0
   10.6092   38.1926   31.6470 C   0  0  0  0  0  0  0  0  0  0  0  0
   12.9332   37.6792   32.0294 C   0  0  0  0  0  0  0  0  0  0  0  0
    9.6122   38.0895   30.6542 O   0  0  0  0  0  0  0  0  0  0  0  0
   11.5743   37.0145   31.7024 C   0  0  0  0  0  0  0  0  0  0  0  0
   13.4844   37.2107   33.3241 N   0  0  0  0  0  0  0  0  0  0  0  0
   11.6297   36.3239   30.4740 O   0  0  0  0  0  0  0  0  0  0  0  0
   14.4802   36.3313   33.5726 C   0  0  0  0  0  0  0  0  0  0  0  0
   13.1139   37.6266   34.5692 C   0  0  0  0  0  0  0  0  0  0  0  0
   15.2075   35.6149   32.6739 N   0  0  0  0  0  0  0  0  0  0  0  0
   14.6761   36.2303   34.9181 C   0  0  0  0  0  0  0  0  0  0  0  0
   13.8220   37.0447   35.5785 N   0  0  0  0  0  0  0  0  0  0  0  0
   16.1643   34.7600   33.1547 C   0  0  0  0  0  0  0  0  0  0  0  0
   15.6529   35.3505   35.4130 C   0  0  0  0  0  0  0  0  0  0  0  0
   16.3798   34.6315   34.5041 N   0  0  0  0  0  0  0  0  0  0  0  0
   15.9003   35.1932   36.8089 N   0  0  0  0  0  0  0  0  0  0  0  0
    9.0121   45.4317   33.6711 H   0  0  0  0  0  0  0  0  0  0  0  0
   10.7261   46.9688   33.1215 H   0  0  0  0  0  0  0  0  0  0  0  0
   11.8908   45.7659   32.9476 H   0  0  0  0  0  0  0  0  0  0  0  0
    9.3427   43.8330   31.4757 H   0  0  0  0  0  0  0  0  0  0  0  0
   10.7237   44.8823   31.1557 H   0  0  0  0  0  0  0  0  0  0  0  0
    7.0106   44.7170   31.5842 H   0  0  0  0  0  0  0  0  0  0  0  0
   10.3459   47.1868   30.4115 H   0  0  0  0  0  0  0  0  0  0  0  0
    5.4668   46.2855   30.5251 H   0  0  0  0  0  0  0  0  0  0  0  0
    8.7942   48.7706   29.3448 H   0  0  0  0  0  0  0  0  0  0  0  0
    4.3003   48.1047   29.9375 H   0  0  0  0  0  0  0  0  0  0  0  0
    5.0242   47.7114   26.9704 H   0  0  0  0  0  0  0  0  0  0  0  0
    3.3919   47.4214   27.6943 H   0  0  0  0  0  0  0  0  0  0  0  0
    4.8022   46.4376   28.2163 H   0  0  0  0  0  0  0  0  0  0  0  0
    5.5508   50.0605   26.9148 H   0  0  0  0  0  0  0  0  0  0  0  0
    1.8050   52.1714   29.4448 H   0  0  0  0  0  0  0  0  0  0  0  0
    3.0319   53.6477   25.0849 H   0  0  0  0  0  0  0  0  0  0  0  0
    4.2267   54.5588   26.1254 H   0  0  0  0  0  0  0  0  0  0  0  0
   11.3802   41.5529   31.4734 H   0  0  0  0  0  0  0  0  0  0  0  0
    9.8243   40.7216   31.7643 H   0  0  0  0  0  0  0  0  0  0  0  0
   11.7266   39.5311   30.3513 H   0  0  0  0  0  0  0  0  0  0  0  0
   10.1110   38.2747   32.6387 H   0  0  0  0  0  0  0  0  0  0  0  0
   13.6652   37.4519   31.2226 H   0  0  0  0  0  0  0  0  0  0  0  0
   10.0511   38.1143   29.7645 H   0  0  0  0  0  0  0  0  0  0  0  0
   11.2762   36.3141   32.5189 H   0  0  0  0  0  0  0  0  0  0  0  0
   10.8593   35.6978   30.4640 H   0  0  0  0  0  0  0  0  0  0  0  0
   12.3295   38.3518   34.7449 H   0  0  0  0  0  0  0  0  0  0  0  0
   16.7564   34.1779   32.4620 H   0  0  0  0  0  0  0  0  0  0  0  0
   15.3534   35.7359   37.5138 H   0  0  0  0  0  0  0  0  0  0  0  0
   16.6349   34.5300   37.1415 H   0  0  0  0  0  0  0  0  0  0  0  0
  1  2  2  0
  1  3  1  0
  3  4  1  0
  4  5  1  0
  6  1  1  0
  7  6  1  0
  6  8  1  0
  8  9  1  0
  9 10  2  0
 11  9  1  0
 10 12  1  0
 13 11  2  0
 12 14  2  0
 14 13  1  0
 14 15  1  0
 15 16  1  0
 16 17  1  0
 16 18  1  0
 18 19  2  0
 20 18  1  0
 19 21  1  0
 22 20  2  0
 20 23  1  0
 21 24  1  0
 21 25  2  0
 25 22  1  0
 23 26  1  0
 23 27  2  0
 24 28  1  0
 25 29  1  0
 28 29  1  0
  4 30  2  0
  4 31  1  0
 32 31  1  0
 32 33  1  0
 33 34  1  0
 33 35  1  0
 34 36  1  0
 35 37  1  0
 35 38  1  0
 38 36  1  0
 36 39  1  0
 38 40  1  0
 41 39  1  0
 42 39  1  0
 43 41  2  0
 41 44  1  0
 45 42  2  0
 46 43  1  0
 44 47  2  0
 44 45  1  0
 48 46  2  0
 48 47  1  0
 47 49  1  0
  6 50  1  1
  7 51  1  0
  7 52  1  0
  8 53  1  0
  8 54  1  0
 10 55  1  0
 11 56  1  0
 12 57  1  0
 13 58  1  0
 16 59  1  1
 17 60  1  0
 17 61  1  0
 17 62  1  0
 19 63  1  0
 22 64  1  0
 28 65  1  0
 28 66  1  0
 32 67  1  0
 32 68  1  0
 33 69  1  0
 35 70  1  0
 36 71  1  0
 37 72  1  0
 38 73  1  0
 40 74  1  0
 42 75  1  0
 46 76  1  0
 49 77  1  0
 49 78  1  0
M  CHG  3   5  -1  23   1  26  -1
M  END
>  <EmbedRMS>  (6) 
0.0818052738044

$$$$

     RDKit          3D

 78 83  0  0  0  0  0  0  0  0999 V2000
   10.2836   43.7660   33.8256 C   0  0  0  0  0  0  0  0  0  0  0  0
   11.4103   43.5929   34.3753 O   0  0  0  0  0  0  0  0  0  0  0  0
    9.3640   42.7253   33.7347 O   0  0  0  0  0  0  0  0  0  0  0  0
    9.8906   41.2265   34.2938 P   0  0  0  0  0  0  0  0  0  0  0  0
   10.3733   41.4558   35.8835 O   0  0  0  0  0  0  0  0  0  0  0  0
    9.9549   45.0695   33.2038 C   0  0  1  0  0  0  0  0  0  0  0  0
   11.0275   46.0322   33.4762 N   0  0  0  0  0  0  0  0  0  0  0  0
    9.7470   44.8486   31.6879 C   0  0  0  0  0  0  0  0  0  0  0  0
    8.7925   45.8417   31.0857 C   0  0  0  0  0  0  0  0  0  0  0  0
    7.4063   45.6008   31.0985 C   0  0  0  0  0  0  0  0  0  0  0  0
    9.2815   46.9874   30.4418 C   0  0  0  0  0  0  0  0  0  0  0  0
    6.5252   46.5002   30.4833 C   0  0  0  0  0  0  0  0  0  0  0  0
    8.4002   47.8863   29.8304 C   0  0  0  0  0  0  0  0  0  0  0  0
    7.0174   47.6592   29.8482 C   0  0  0  0  0  0  0  0  0  0  0  0
    6.1871   48.6007   29.2084 O   0  0  0  0  0  0  0  0  0  0  0  0
    4.7621   48.7426   29.3347 C   0  0  2  0  0  0  0  0  0  0  0  0
    4.3589   48.8449   30.8203 C   0  0  0  0  0  0  0  0  0  0  0  0
    3.9763   47.6802   28.5607 C   0  0  0  0  0  0  0  0  0  0  0  0
    4.6641   46.6846   27.8159 C   0  0  0  0  0  0  0  0  0  0  0  0
    2.5378   47.6692   28.5536 C   0  0  0  0  0  0  0  0  0  0  0  0
    3.9275   45.6873   27.1913 C   0  0  0  0  0  0  0  0  0  0  0  0
    1.8438   46.6171   27.9155 C   0  0  0  0  0  0  0  0  0  0  0  0
    1.7690   48.7249   29.1479 N   0  0  0  0  0  0  0  0  0  0  0  0
    4.3888   44.6194   26.4457 O   0  0  0  0  0  0  0  0  0  0  0  0
    2.5781   45.6487   27.2479 C   0  0  0  0  0  0  0  0  0  0  0  0
    0.5966   48.4291   29.8041 O   0  0  0  0  0  0  0  0  0  0  0  0
    2.0156   49.9145   28.8624 O   0  0  0  0  0  0  0  0  0  0  0  0
    3.2527   43.8606   26.0098 C   0  0  0  0  0  0  0  0  0  0  0  0
    2.1163   44.5537   26.5432 O   0  0  0  0  0  0  0  0  0  0  0  0
    8.8126   40.1848   34.2122 O   0  0  0  0  0  0  0  0  0  0  0  0
   11.2418   40.7942   33.3694 O   0  0  0  0  0  0  0  0  0  0  0  0
   10.9179   40.6904   31.9970 C   0  0  0  0  0  0  0  0  0  0  0  0
   11.5181   39.3814   31.4408 C   0  0  0  0  0  0  0  0  0  0  0  0
   12.7497   39.0870   32.0745 O   0  0  0  0  0  0  0  0  0  0  0  0
   10.6045   38.1892   31.6655 C   0  0  0  0  0  0  0  0  0  0  0  0
   12.9344   37.6801   32.0290 C   0  0  0  0  0  0  0  0  0  0  0  0
    9.6418   38.0758   30.6441 O   0  0  0  0  0  0  0  0  0  0  0  0
   11.5741   37.0170   31.7045 C   0  0  0  0  0  0  0  0  0  0  0  0
   13.4851   37.2125   33.3241 N   0  0  0  0  0  0  0  0  0  0  0  0
   11.6079   36.3407   30.4680 O   0  0  0  0  0  0  0  0  0  0  0  0
   14.4801   36.3321   33.5727 C   0  0  0  0  0  0  0  0  0  0  0  0
   13.1140   37.6277   34.5693 C   0  0  0  0  0  0  0  0  0  0  0  0
   15.2073   35.6155   32.6739 N   0  0  0  0  0  0  0  0  0  0  0  0
   14.6758   36.2306   34.9182 C   0  0  0  0  0  0  0  0  0  0  0  0
   13.8217   37.0451   35.5785 N   0  0  0  0  0  0  0  0  0  0  0  0
   16.1639   34.7602   33.1546 C   0  0  0  0  0  0  0  0  0  0  0  0
   15.6526   35.3506   35.4130 C   0  0  0  0  0  0  0  0  0  0  0  0
   16.3794   34.6316   34.5041 N   0  0  0  0  0  0  0  0  0  0  0  0
   15.9001   35.1933   36.8089 N   0  0  0  0  0  0  0  0  0  0  0  0
    9.0122   45.4315   33.6717 H   0  0  0  0  0  0  0  0  0  0  0  0
   11.8909   45.7658   32.9478 H   0  0  0  0  0  0  0  0  0  0  0  0
   10.7261   46.9688   33.1217 H   0  0  0  0  0  0  0  0  0  0  0  0
    9.3424   43.8334   31.4759 H   0  0  0  0  0  0  0  0  0  0  0  0
   10.7234   44.8827   31.1559 H   0  0  0  0  0  0  0  0  0  0  0  0
    7.0113   44.7107   31.5728 H   0  0  0  0  0  0  0  0  0  0  0  0
   10.3459   47.1853   30.4087 H   0  0  0  0  0  0  0  0  0  0  0  0
    5.4732   46.2624   30.4828 H   0  0  0  0  0  0  0  0  0  0  0  0
    8.7945   48.7665   29.3386 H   0  0  0  0  0  0  0  0  0  0  0  0
    4.5220   49.7195   28.8657 H   0  0  0  0  0  0  0  0  0  0  0  0
    5.1912   49.2759   31.4163 H   0  0  0  0  0  0  0  0  0  0  0  0
    4.0883   47.8569   31.2443 H   0  0  0  0  0  0  0  0  0  0  0  0
    3.4891   49.5197   30.9491 H   0  0  0  0  0  0  0  0  0  0  0  0
    5.7396   46.6699   27.7191 H   0  0  0  0  0  0  0  0  0  0  0  0
    0.7621   46.5788   27.9076 H   0  0  0  0  0  0  0  0  0  0  0  0
    3.2052   43.8431   24.9008 H   0  0  0  0  0  0  0  0  0  0  0  0
    3.2995   42.8296   26.4189 H   0  0  0  0  0  0  0  0  0  0  0  0
    9.8290   40.7386   31.7617 H   0  0  0  0  0  0  0  0  0  0  0  0
   11.3946   41.5459   31.4722 H   0  0  0  0  0  0  0  0  0  0  0  0
   11.6994   39.5069   30.3484 H   0  0  0  0  0  0  0  0  0  0  0  0
   10.1090   38.2635   32.6632 H   0  0  0  0  0  0  0  0  0  0  0  0
   13.6662   37.4514   31.2224 H   0  0  0  0  0  0  0  0  0  0  0  0
    8.9010   38.6926   30.8792 H   0  0  0  0  0  0  0  0  0  0  0  0
   11.2650   36.3083   32.5087 H   0  0  0  0  0  0  0  0  0  0  0  0
   12.1372   35.5140   30.6163 H   0  0  0  0  0  0  0  0  0  0  0  0
   12.3297   38.3529   34.7450 H   0  0  0  0  0  0  0  0  0  0  0  0
   16.7558   34.1781   32.4619 H   0  0  0  0  0  0  0  0  0  0  0  0
   16.6346   34.5300   37.1414 H   0  0  0  0  0  0  0  0  0  0  0  0
   15.3533   35.7360   37.5138 H   0  0  0  0  0  0  0  0  0  0  0  0
  1  2  2  0
  1  3  1  0
  3  4  1  0
  4  5  1  0
  6  1  1  0
  7  6  1  0
  6  8  1  0
  8  9  1  0
  9 10  2  0
 11  9  1  0
 10 12  1  0
 13 11  2  0
 12 14  2  0
 14 13  1  0
 14 15  1  0
 15 16  1  0
 16 17  1  0
 16 18  1  0
 18 19  2  0
 20 18  1  0
 19 21  1  0
 22 20  2  0
 20 23  1  0
 21 24  1  0
 21 25  2  0
 25 22  1  0
 23 26  1  0
 23 27  2  0
 24 28  1  0
 25 29  1  0
 28 29  1  0
  4 30  2  0
  4 31  1  0
 32 31  1  0
 32 33  1  0
 33 34  1  0
 33 35  1  0
 34 36  1  0
 35 37  1  0
 35 38  1  0
 38 36  1  0
 36 39  1  0
 38 40  1  0
 41 39  1  0
 42 39  1  0
 43 41  2  0
 41 44  1  0
 45 42  2  0
 46 43  1  0
 44 47  2  0
 44 45  1  0
 48 46  2  0
 48 47  1  0
 47 49  1  0
  6 50  1  1
  7 51  1  0
  7 52  1  0
  8 53  1  0
  8 54  1  0
 10 55  1  0
 11 56  1  0
 12 57  1  0
 13 58  1  0
 16 59  1  6
 17 60  1  0
 17 61  1  0
 17 62  1  0
 19 63  1  0
 22 64  1  0
 28 65  1  0
 28 66  1  0
 32 67  1  0
 32 68  1  0
 33 69  1  0
 35 70  1  0
 36 71  1  0
 37 72  1  0
 38 73  1  0
 40 74  1  0
 42 75  1  0
 46 76  1  0
 49 77  1  0
 49 78  1  0
M  CHG  3   5  -1  23   1  26  -1
M  END
>  <EmbedRMS>  (7) 
0.0827971092732

$$$$

     RDKit          3D

 78 83  0  0  0  0  0  0  0  0999 V2000
   10.2842   43.7663   33.8254 C   0  0  0  0  0  0  0  0  0  0  0  0
   11.4107   43.5932   34.3754 O   0  0  0  0  0  0  0  0  0  0  0  0
    9.3646   42.7256   33.7341 O   0  0  0  0  0  0  0  0  0  0  0  0
    9.8905   41.2265   34.2933 P   0  0  0  0  0  0  0  0  0  0  0  0
   10.3741   41.4555   35.8828 O   0  0  0  0  0  0  0  0  0  0  0  0
    9.9559   45.0699   33.2036 C   0  0  1  0  0  0  0  0  0  0  0  0
   11.0297   46.0314   33.4756 N   0  0  0  0  0  0  0  0  0  0  0  0
    9.7474   44.8502   31.6880 C   0  0  0  0  0  0  0  0  0  0  0  0
    8.7926   45.8434   31.0866 C   0  0  0  0  0  0  0  0  0  0  0  0
    7.4066   45.6029   31.1024 C   0  0  0  0  0  0  0  0  0  0  0  0
    9.2803   46.9916   30.4451 C   0  0  0  0  0  0  0  0  0  0  0  0
    6.5248   46.4988   30.4836 C   0  0  0  0  0  0  0  0  0  0  0  0
    8.3979   47.8899   29.8337 C   0  0  0  0  0  0  0  0  0  0  0  0
    7.0168   47.6520   29.8390 C   0  0  0  0  0  0  0  0  0  0  0  0
    6.1827   48.5707   29.1803 O   0  0  0  0  0  0  0  0  0  0  0  0
    4.7624   48.4676   29.0646 C   0  0  2  0  0  0  0  0  0  0  0  0
    4.2782   49.3672   27.9267 C   0  0  0  0  0  0  0  0  0  0  0  0
    4.0715   48.8208   30.3735 C   0  0  0  0  0  0  0  0  0  0  0  0
    3.1735   47.8777   30.9300 C   0  0  0  0  0  0  0  0  0  0  0  0
    4.2379   50.0898   31.0240 C   0  0  0  0  0  0  0  0  0  0  0  0
    2.4828   48.2168   32.0867 C   0  0  0  0  0  0  0  0  0  0  0  0
    3.4908   50.3879   32.1846 C   0  0  0  0  0  0  0  0  0  0  0  0
    5.1324   51.0872   30.5167 N   0  0  0  0  0  0  0  0  0  0  0  0
    1.5736   47.4586   32.7979 O   0  0  0  0  0  0  0  0  0  0  0  0
    2.6311   49.4202   32.6850 C   0  0  0  0  0  0  0  0  0  0  0  0
    4.6764   52.3747   30.3531 O   0  0  0  0  0  0  0  0  0  0  0  0
    6.3638   50.8810   30.5314 O   0  0  0  0  0  0  0  0  0  0  0  0
    1.1218   48.2386   33.9140 C   0  0  0  0  0  0  0  0  0  0  0  0
    1.8217   49.4842   33.8033 O   0  0  0  0  0  0  0  0  0  0  0  0
    8.8115   40.1856   34.2120 O   0  0  0  0  0  0  0  0  0  0  0  0
   11.2400   40.7936   33.3671 O   0  0  0  0  0  0  0  0  0  0  0  0
   10.9123   40.6856   31.9957 C   0  0  0  0  0  0  0  0  0  0  0  0
   11.5172   39.3784   31.4407 C   0  0  0  0  0  0  0  0  0  0  0  0
   12.7489   39.0860   32.0754 O   0  0  0  0  0  0  0  0  0  0  0  0
   10.6059   38.1865   31.6658 C   0  0  0  0  0  0  0  0  0  0  0  0
   12.9357   37.6792   32.0288 C   0  0  0  0  0  0  0  0  0  0  0  0
    9.6404   38.0895   30.6468 O   0  0  0  0  0  0  0  0  0  0  0  0
   11.5768   37.0147   31.7042 C   0  0  0  0  0  0  0  0  0  0  0  0
   13.4855   37.2117   33.3240 N   0  0  0  0  0  0  0  0  0  0  0  0
   11.6102   36.3388   30.4677 O   0  0  0  0  0  0  0  0  0  0  0  0
   14.4801   36.3310   33.5728 C   0  0  0  0  0  0  0  0  0  0  0  0
   13.1151   37.6283   34.5690 C   0  0  0  0  0  0  0  0  0  0  0  0
   15.2083   35.6154   32.6740 N   0  0  0  0  0  0  0  0  0  0  0  0
   14.6760   36.2303   34.9181 C   0  0  0  0  0  0  0  0  0  0  0  0
   13.8231   37.0462   35.5782 N   0  0  0  0  0  0  0  0  0  0  0  0
   16.1645   34.7595   33.1547 C   0  0  0  0  0  0  0  0  0  0  0  0
   15.6525   35.3507   35.4132 C   0  0  0  0  0  0  0  0  0  0  0  0
   16.3793   34.6309   34.5045 N   0  0  0  0  0  0  0  0  0  0  0  0
   15.8978   35.1927   36.8096 N   0  0  0  0  0  0  0  0  0  0  0  0
    9.0131   45.4330   33.6707 H   0  0  0  0  0  0  0  0  0  0  0  0
   10.7283   46.9683   33.1228 H   0  0  0  0  0  0  0  0  0  0  0  0
   11.8931   45.7662   32.9460 H   0  0  0  0  0  0  0  0  0  0  0  0
   10.7234   44.8863   31.1559 H   0  0  0  0  0  0  0  0  0  0  0  0
    9.3418   43.8352   31.4767 H   0  0  0  0  0  0  0  0  0  0  0  0
    7.0121   44.7187   31.5870 H   0  0  0  0  0  0  0  0  0  0  0  0
   10.3439   47.1926   30.4157 H   0  0  0  0  0  0  0  0  0  0  0  0
    5.4699   46.2735   30.5064 H   0  0  0  0  0  0  0  0  0  0  0  0
    8.7905   48.7707   29.3415 H   0  0  0  0  0  0  0  0  0  0  0  0
    4.5054   47.4296   28.7566 H   0  0  0  0  0  0  0  0  0  0  0  0
    4.7202   49.0233   26.9681 H   0  0  0  0  0  0  0  0  0  0  0  0
    4.5829   50.4210   28.0863 H   0  0  0  0  0  0  0  0  0  0  0  0
    3.1715   49.3181   27.8401 H   0  0  0  0  0  0  0  0  0  0  0  0
    3.0062   46.9121   30.4700 H   0  0  0  0  0  0  0  0  0  0  0  0
    3.5915   51.3405   32.6879 H   0  0  0  0  0  0  0  0  0  0  0  0
    1.3863   47.7356   34.8677 H   0  0  0  0  0  0  0  0  0  0  0  0
    0.0264   48.4071   33.8461 H   0  0  0  0  0  0  0  0  0  0  0  0
   11.3813   41.5435   31.4675 H   0  0  0  0  0  0  0  0  0  0  0  0
    9.8209   40.7194   31.7642 H   0  0  0  0  0  0  0  0  0  0  0  0
   11.6987   39.5045   30.3481 H   0  0  0  0  0  0  0  0  0  0  0  0
   10.1077   38.2768   32.6605 H   0  0  0  0  0  0  0  0  0  0  0  0
   13.6677   37.4511   31.2219 H   0  0  0  0  0  0  0  0  0  0  0  0
    9.0014   37.3868   30.9349 H   0  0  0  0  0  0  0  0  0  0  0  0
   11.2685   36.3066   32.5082 H   0  0  0  0  0  0  0  0  0  0  0  0
   12.1393   35.5122   30.6171 H   0  0  0  0  0  0  0  0  0  0  0  0
   12.3314   38.3541   34.7446 H   0  0  0  0  0  0  0  0  0  0  0  0
   16.7559   34.1761   32.4617 H   0  0  0  0  0  0  0  0  0  0  0  0
   15.3523   35.7371   37.5145 H   0  0  0  0  0  0  0  0  0  0  0  0
   16.6337   34.5311   37.1421 H   0  0  0  0  0  0  0  0  0  0  0  0
  1  2  2  0
  1  3  1  0
  3  4  1  0
  4  5  1  0
  6  1  1  0
  7  6  1  0
  6  8  1  0
  8  9  1  0
  9 10  2  0
 11  9  1  0
 10 12  1  0
 13 11  2  0
 12 14  2  0
 14 13  1  0
 14 15  1  0
 15 16  1  0
 16 17  1  0
 16 18  1  0
 18 19  2  0
 20 18  1  0
 19 21  1  0
 22 20  2  0
 20 23  1  0
 21 24  1  0
 21 25  2  0
 25 22  1  0
 23 26  1  0
 23 27  2  0
 24 28  1  0
 25 29  1  0
 28 29  1  0
  4 30  2  0
  4 31  1  0
 32 31  1  0
 32 33  1  0
 33 34  1  0
 33 35  1  0
 34 36  1  0
 35 37  1  0
 35 38  1  0
 38 36  1  0
 36 39  1  0
 38 40  1  0
 41 39  1  0
 42 39  1  0
 43 41  2  0
 41 44  1  0
 45 42  2  0
 46 43  1  0
 44 47  2  0
 44 45  1  0
 48 46  2  0
 48 47  1  0
 47 49  1  0
  6 50  1  1
  7 51  1  0
  7 52  1  0
  8 53  1  0
  8 54  1  0
 10 55  1  0
 11 56  1  0
 12 57  1  0
 13 58  1  0
 16 59  1  6
 17 60  1  0
 17 61  1  0
 17 62  1  0
 19 63  1  0
 22 64  1  0
 28 65  1  0
 28 66  1  0
 32 67  1  0
 32 68  1  0
 33 69  1  0
 35 70  1  0
 36 71  1  0
 37 72  1  0
 38 73  1  0
 40 74  1  0
 42 75  1  0
 46 76  1  0
 49 77  1  0
 49 78  1  0
M  CHG  3   5  -1  23   1  26  -1
M  END
>  <EmbedRMS>  (8) 
0.082505298685

$$$$

     RDKit          3D

 78 83  0  0  0  0  0  0  0  0999 V2000
   10.2803   43.7665   33.8250 C   0  0  0  0  0  0  0  0  0  0  0  0
   11.4110   43.5919   34.3666 O   0  0  0  0  0  0  0  0  0  0  0  0
    9.3616   42.7251   33.7348 O   0  0  0  0  0  0  0  0  0  0  0  0
    9.8898   41.2268   34.2939 P   0  0  0  0  0  0  0  0  0  0  0  0
   10.3738   41.4565   35.8831 O   0  0  0  0  0  0  0  0  0  0  0  0
    9.9460   45.0736   33.2110 C   0  0  1  0  0  0  0  0  0  0  0  0
   11.0267   46.0292   33.4708 N   0  0  0  0  0  0  0  0  0  0  0  0
    9.7541   44.8540   31.6947 C   0  0  0  0  0  0  0  0  0  0  0  0
    8.7959   45.8409   31.0843 C   0  0  0  0  0  0  0  0  0  0  0  0
    7.4092   45.6003   31.1013 C   0  0  0  0  0  0  0  0  0  0  0  0
    9.2824   46.9879   30.4400 C   0  0  0  0  0  0  0  0  0  0  0  0
    6.5255   46.4995   30.4875 C   0  0  0  0  0  0  0  0  0  0  0  0
    8.3996   47.8876   29.8323 C   0  0  0  0  0  0  0  0  0  0  0  0
    7.0180   47.6542   29.8441 C   0  0  0  0  0  0  0  0  0  0  0  0
    6.1855   48.5957   29.2164 O   0  0  0  0  0  0  0  0  0  0  0  0
    4.7816   48.4612   28.9888 C   0  0  2  0  0  0  0  0  0  0  0  0
    4.4919   47.4202   27.8985 C   0  0  0  0  0  0  0  0  0  0  0  0
    4.1893   49.8156   28.6296 C   0  0  0  0  0  0  0  0  0  0  0  0
    3.1860   50.3447   29.4805 C   0  0  0  0  0  0  0  0  0  0  0  0
    4.5648   50.5558   27.4536 C   0  0  0  0  0  0  0  0  0  0  0  0
    2.5870   51.5496   29.1385 C   0  0  0  0  0  0  0  0  0  0  0  0
    3.9063   51.7687   27.1507 C   0  0  0  0  0  0  0  0  0  0  0  0
    5.5820   50.0974   26.5513 N   0  0  0  0  0  0  0  0  0  0  0  0
    1.5957   52.2372   29.8119 O   0  0  0  0  0  0  0  0  0  0  0  0
    2.9294   52.2296   28.0216 C   0  0  0  0  0  0  0  0  0  0  0  0
    5.3849   50.2108   25.1945 O   0  0  0  0  0  0  0  0  0  0  0  0
    6.7285   49.8433   26.9716 O   0  0  0  0  0  0  0  0  0  0  0  0
    1.2987   53.4266   29.0677 C   0  0  0  0  0  0  0  0  0  0  0  0
    2.1729   53.3823   27.9318 O   0  0  0  0  0  0  0  0  0  0  0  0
    8.8122   40.1845   34.2134 O   0  0  0  0  0  0  0  0  0  0  0  0
   11.2400   40.7954   33.3680 O   0  0  0  0  0  0  0  0  0  0  0  0
   10.9125   40.6877   31.9967 C   0  0  0  0  0  0  0  0  0  0  0  0
   11.5169   39.3811   31.4420 C   0  0  0  0  0  0  0  0  0  0  0  0
   12.7500   39.0881   32.0760 O   0  0  0  0  0  0  0  0  0  0  0  0
   10.6043   38.1893   31.6659 C   0  0  0  0  0  0  0  0  0  0  0  0
   12.9395   37.6814   32.0280 C   0  0  0  0  0  0  0  0  0  0  0  0
    9.6353   38.0951   30.6499 O   0  0  0  0  0  0  0  0  0  0  0  0
   11.5804   37.0191   31.6934 C   0  0  0  0  0  0  0  0  0  0  0  0
   13.4851   37.2119   33.3244 N   0  0  0  0  0  0  0  0  0  0  0  0
   11.6118   36.3189   30.4673 O   0  0  0  0  0  0  0  0  0  0  0  0
   14.4801   36.3316   33.5732 C   0  0  0  0  0  0  0  0  0  0  0  0
   13.1139   37.6277   34.5692 C   0  0  0  0  0  0  0  0  0  0  0  0
   15.2076   35.6154   32.6744 N   0  0  0  0  0  0  0  0  0  0  0  0
   14.6756   36.2303   34.9186 C   0  0  0  0  0  0  0  0  0  0  0  0
   13.8215   37.0451   35.5786 N   0  0  0  0  0  0  0  0  0  0  0  0
   16.1642   34.7602   33.1551 C   0  0  0  0  0  0  0  0  0  0  0  0
   15.6526   35.3505   35.4134 C   0  0  0  0  0  0  0  0  0  0  0  0
   16.3796   34.6316   34.5045 N   0  0  0  0  0  0  0  0  0  0  0  0
   15.9001   35.1933   36.8093 N   0  0  0  0  0  0  0  0  0  0  0  0
    8.9995   45.4382   33.6719 H   0  0  0  0  0  0  0  0  0  0  0  0
   10.7765   46.9369   33.0157 H   0  0  0  0  0  0  0  0  0  0  0  0
   11.0501   46.2278   34.4981 H   0  0  0  0  0  0  0  0  0  0  0  0
    9.3647   43.8352   31.4710 H   0  0  0  0  0  0  0  0  0  0  0  0
   10.7414   44.9077   31.1835 H   0  0  0  0  0  0  0  0  0  0  0  0
    7.0152   44.7168   31.5885 H   0  0  0  0  0  0  0  0  0  0  0  0
   10.3462   47.1881   30.4062 H   0  0  0  0  0  0  0  0  0  0  0  0
    5.4682   46.2846   30.5309 H   0  0  0  0  0  0  0  0  0  0  0  0
    8.7920   48.7699   29.3425 H   0  0  0  0  0  0  0  0  0  0  0  0
    4.3035   48.1047   29.9268 H   0  0  0  0  0  0  0  0  0  0  0  0
    4.7656   46.4048   28.2504 H   0  0  0  0  0  0  0  0  0  0  0  0
    3.4087   47.4162   27.6519 H   0  0  0  0  0  0  0  0  0  0  0  0
    5.0721   47.6248   26.9771 H   0  0  0  0  0  0  0  0  0  0  0  0
    2.8687   49.8280   30.3776 H   0  0  0  0  0  0  0  0  0  0  0  0
    4.1627   52.3428   26.2696 H   0  0  0  0  0  0  0  0  0  0  0  0
    1.5126   54.3270   29.6810 H   0  0  0  0  0  0  0  0  0  0  0  0
    0.2391   53.4178   28.7363 H   0  0  0  0  0  0  0  0  0  0  0  0
   11.3807   41.5456   31.4683 H   0  0  0  0  0  0  0  0  0  0  0  0
    9.8215   40.7222   31.7644 H   0  0  0  0  0  0  0  0  0  0  0  0
   11.6986   39.5088   30.3499 H   0  0  0  0  0  0  0  0  0  0  0  0
   10.1109   38.2737   32.6630 H   0  0  0  0  0  0  0  0  0  0  0  0
   13.6783   37.4562   31.2271 H   0  0  0  0  0  0  0  0  0  0  0  0
    9.0020   37.3860   30.9348 H   0  0  0  0  0  0  0  0  0  0  0  0
   11.2807   36.3052   32.4921 H   0  0  0  0  0  0  0  0  0  0  0  0
   11.8819   36.9599   29.7584 H   0  0  0  0  0  0  0  0  0  0  0  0
   12.3303   38.3538   34.7446 H   0  0  0  0  0  0  0  0  0  0  0  0
   16.7563   34.1783   32.4623 H   0  0  0  0  0  0  0  0  0  0  0  0
   16.6347   34.5301   37.1418 H   0  0  0  0  0  0  0  0  0  0  0  0
   15.3532   35.7359   37.5142 H   0  0  0  0  0  0  0  0  0  0  0  0
  1  2  2  0
  1  3  1  0
  3  4  1  0
  4  5  1  0
  6  1  1  0
  7  6  1  0
  6  8  1  0
  8  9  1  0
  9 10  2  0
 11  9  1  0
 10 12  1  0
 13 11  2  0
 12 14  2  0
 14 13  1  0
 14 15  1  0
 15 16  1  0
 16 17  1  0
 16 18  1  0
 18 19  2  0
 20 18  1  0
 19 21  1  0
 22 20  2  0
 20 23  1  0
 21 24  1  0
 21 25  2  0
 25 22  1  0
 23 26  1  0
 23 27  2  0
 24 28  1  0
 25 29  1  0
 28 29  1  0
  4 30  2  0
  4 31  1  0
 32 31  1  0
 32 33  1  0
 33 34  1  0
 33 35  1  0
 34 36  1  0
 35 37  1  0
 35 38  1  0
 38 36  1  0
 36 39  1  0
 38 40  1  0
 41 39  1  0
 42 39  1  0
 43 41  2  0
 41 44  1  0
 45 42  2  0
 46 43  1  0
 44 47  2  0
 44 45  1  0
 48 46  2  0
 48 47  1  0
 47 49  1  0
  6 50  1  1
  7 51  1  0
  7 52  1  0
  8 53  1  0
  8 54  1  0
 10 55  1  0
 11 56  1  0
 12 57  1  0
 13 58  1  0
 16 59  1  1
 17 60  1  0
 17 61  1  0
 17 62  1  0
 19 63  1  0
 22 64  1  0
 28 65  1  0
 28 66  1  0
 32 67  1  0
 32 68  1  0
 33 69  1  0
 35 70  1  0
 36 71  1  0
 37 72  1  0
 38 73  1  0
 40 74  1  0
 42 75  1  0
 46 76  1  0
 49 77  1  0
 49 78  1  0
M  CHG  3   5  -1  23   1  26  -1
M  END
>  <EmbedRMS>  (9) 
0.0813813205858

$$$$

     RDKit          3D

 78 83  0  0  0  0  0  0  0  0999 V2000
   10.2838   43.7627   33.8277 C   0  0  0  0  0  0  0  0  0  0  0  0
   11.4103   43.5863   34.3766 O   0  0  0  0  0  0  0  0  0  0  0  0
    9.3628   42.7238   33.7357 O   0  0  0  0  0  0  0  0  0  0  0  0
    9.8893   41.2251   34.2943 P   0  0  0  0  0  0  0  0  0  0  0  0
   10.3731   41.4545   35.8836 O   0  0  0  0  0  0  0  0  0  0  0  0
    9.9549   45.0700   33.2064 C   0  0  1  0  0  0  0  0  0  0  0  0
   11.0198   46.0481   33.4571 N   0  0  0  0  0  0  0  0  0  0  0  0
    9.7508   44.8509   31.6923 C   0  0  0  0  0  0  0  0  0  0  0  0
    8.7949   45.8417   31.0868 C   0  0  0  0  0  0  0  0  0  0  0  0
    7.4087   45.6014   31.1003 C   0  0  0  0  0  0  0  0  0  0  0  0
    9.2826   46.9887   30.4452 C   0  0  0  0  0  0  0  0  0  0  0  0
    6.5267   46.5009   30.4854 C   0  0  0  0  0  0  0  0  0  0  0  0
    8.4001   47.8868   29.8344 C   0  0  0  0  0  0  0  0  0  0  0  0
    7.0173   47.6559   29.8439 C   0  0  0  0  0  0  0  0  0  0  0  0
    6.1977   48.6010   29.1997 O   0  0  0  0  0  0  0  0  0  0  0  0
    4.7753   48.5792   29.0214 C   0  0  2  0  0  0  0  0  0  0  0  0
    4.0618   48.8731   30.3504 C   0  0  0  0  0  0  0  0  0  0  0  0
    4.3023   47.3423   28.2551 C   0  0  0  0  0  0  0  0  0  0  0  0
    3.4542   46.3830   28.8744 C   0  0  0  0  0  0  0  0  0  0  0  0
    4.6329   47.1718   26.8645 C   0  0  0  0  0  0  0  0  0  0  0  0
    3.0090   45.3012   28.1277 C   0  0  0  0  0  0  0  0  0  0  0  0
    4.1356   46.0553   26.1553 C   0  0  0  0  0  0  0  0  0  0  0  0
    5.4085   48.1412   26.1397 N   0  0  0  0  0  0  0  0  0  0  0  0
    2.1998   44.2561   28.5303 O   0  0  0  0  0  0  0  0  0  0  0  0
    3.3364   45.1432   26.8269 C   0  0  0  0  0  0  0  0  0  0  0  0
    5.0842   48.4323   24.8347 O   0  0  0  0  0  0  0  0  0  0  0  0
    6.4945   48.5547   26.5922 O   0  0  0  0  0  0  0  0  0  0  0  0
    2.0102   43.3853   27.4069 C   0  0  0  0  0  0  0  0  0  0  0  0
    2.7525   43.9898   26.3393 O   0  0  0  0  0  0  0  0  0  0  0  0
    8.8112   40.1835   34.2130 O   0  0  0  0  0  0  0  0  0  0  0  0
   11.2397   40.7943   33.3684 O   0  0  0  0  0  0  0  0  0  0  0  0
   10.9125   40.6875   31.9969 C   0  0  0  0  0  0  0  0  0  0  0  0
   11.5169   39.3810   31.4420 C   0  0  0  0  0  0  0  0  0  0  0  0
   12.7500   39.0880   32.0758 O   0  0  0  0  0  0  0  0  0  0  0  0
   10.6043   38.1892   31.6658 C   0  0  0  0  0  0  0  0  0  0  0  0
   12.9395   37.6813   32.0279 C   0  0  0  0  0  0  0  0  0  0  0  0
    9.6353   38.0951   30.6499 O   0  0  0  0  0  0  0  0  0  0  0  0
   11.5804   37.0190   31.6934 C   0  0  0  0  0  0  0  0  0  0  0  0
   13.4851   37.2118   33.3244 N   0  0  0  0  0  0  0  0  0  0  0  0
   11.6118   36.3188   30.4673 O   0  0  0  0  0  0  0  0  0  0  0  0
   14.4801   36.3316   33.5732 C   0  0  0  0  0  0  0  0  0  0  0  0
   13.1139   37.6277   34.5692 C   0  0  0  0  0  0  0  0  0  0  0  0
   15.2076   35.6154   32.6744 N   0  0  0  0  0  0  0  0  0  0  0  0
   14.6756   36.2303   34.9186 C   0  0  0  0  0  0  0  0  0  0  0  0
   13.8215   37.0450   35.5786 N   0  0  0  0  0  0  0  0  0  0  0  0
   16.1642   34.7602   33.1551 C   0  0  0  0  0  0  0  0  0  0  0  0
   15.6526   35.3506   35.4134 C   0  0  0  0  0  0  0  0  0  0  0  0
   16.3796   34.6316   34.5046 N   0  0  0  0  0  0  0  0  0  0  0  0
   15.9001   35.1933   36.8093 N   0  0  0  0  0  0  0  0  0  0  0  0
    9.0099   45.4349   33.6668 H   0  0  0  0  0  0  0  0  0  0  0  0
   11.9350   45.6933   33.0929 H   0  0  0  0  0  0  0  0  0  0  0  0
   11.1132   46.1993   34.4884 H   0  0  0  0  0  0  0  0  0  0  0  0
    9.3519   43.8343   31.4759 H   0  0  0  0  0  0  0  0  0  0  0  0
   10.7312   44.8927   31.1677 H   0  0  0  0  0  0  0  0  0  0  0  0
    7.0134   44.7166   31.5842 H   0  0  0  0  0  0  0  0  0  0  0  0
   10.3465   47.1894   30.4152 H   0  0  0  0  0  0  0  0  0  0  0  0
    5.4769   46.2790   30.5268 H   0  0  0  0  0  0  0  0  0  0  0  0
    8.7945   48.7677   29.3437 H   0  0  0  0  0  0  0  0  0  0  0  0
    4.5246   49.4489   28.3758 H   0  0  0  0  0  0  0  0  0  0  0  0
    4.3966   49.8588   30.7376 H   0  0  0  0  0  0  0  0  0  0  0  0
    2.9630   48.9217   30.1938 H   0  0  0  0  0  0  0  0  0  0  0  0
    4.2886   48.1140   31.1239 H   0  0  0  0  0  0  0  0  0  0  0  0
    3.1437   46.4602   29.9063 H   0  0  0  0  0  0  0  0  0  0  0  0
    4.3683   45.9037   25.1091 H   0  0  0  0  0  0  0  0  0  0  0  0
    2.4143   42.3758   27.6309 H   0  0  0  0  0  0  0  0  0  0  0  0
    0.9337   43.3294   27.1416 H   0  0  0  0  0  0  0  0  0  0  0  0
    9.8216   40.7222   31.7644 H   0  0  0  0  0  0  0  0  0  0  0  0
   11.3811   41.5456   31.4692 H   0  0  0  0  0  0  0  0  0  0  0  0
   11.6986   39.5089   30.3498 H   0  0  0  0  0  0  0  0  0  0  0  0
   10.1109   38.2736   32.6629 H   0  0  0  0  0  0  0  0  0  0  0  0
   13.6783   37.4561   31.2271 H   0  0  0  0  0  0  0  0  0  0  0  0
    9.0020   37.3860   30.9348 H   0  0  0  0  0  0  0  0  0  0  0  0
   11.2807   36.3052   32.4921 H   0  0  0  0  0  0  0  0  0  0  0  0
   11.8820   36.9599   29.7584 H   0  0  0  0  0  0  0  0  0  0  0  0
   12.3302   38.3537   34.7445 H   0  0  0  0  0  0  0  0  0  0  0  0
   16.7564   34.1783   32.4624 H   0  0  0  0  0  0  0  0  0  0  0  0
   16.6348   34.5302   37.1419 H   0  0  0  0  0  0  0  0  0  0  0  0
   15.3532   35.7360   37.5142 H   0  0  0  0  0  0  0  0  0  0  0  0
  1  2  2  0
  1  3  1  0
  3  4  1  0
  4  5  1  0
  6  1  1  0
  7  6  1  0
  6  8  1  0
  8  9  1  0
  9 10  2  0
 11  9  1  0
 10 12  1  0
 13 11  2  0
 12 14  2  0
 14 13  1  0
 14 15  1  0
 15 16  1  0
 16 17  1  0
 16 18  1  0
 18 19  2  0
 20 18  1  0
 19 21  1  0
 22 20  2  0
 20 23  1  0
 21 24  1  0
 21 25  2  0
 25 22  1  0
 23 26  1  0
 23 27  2  0
 24 28  1  0
 25 29  1  0
 28 29  1  0
  4 30  2  0
  4 31  1  0
 32 31  1  0
 32 33  1  0
 33 34  1  0
 33 35  1  0
 34 36  1  0
 35 37  1  0
 35 38  1  0
 38 36  1  0
 36 39  1  0
 38 40  1  0
 41 39  1  0
 42 39  1  0
 43 41  2  0
 41 44  1  0
 45 42  2  0
 46 43  1  0
 44 47  2  0
 44 45  1  0
 48 46  2  0
 48 47  1  0
 47 49  1  0
  6 50  1  1
  7 51  1  0
  7 52  1  0
  8 53  1  0
  8 54  1  0
 10 55  1  0
 11 56  1  0
 12 57  1  0
 13 58  1  0
 16 59  1  6
 17 60  1  0
 17 61  1  0
 17 62  1  0
 19 63  1  0
 22 64  1  0
 28 65  1  0
 28 66  1  0
 32 67  1  0
 32 68  1  0
 33 69  1  0
 35 70  1  0
 36 71  1  0
 37 72  1  0
 38 73  1  0
 40 74  1  0
 42 75  1  0
 46 76  1  0
 49 77  1  0
 49 78  1  0
M  CHG  3   5  -1  23   1  26  -1
M  END
>  <EmbedRMS>  (10) 
0.0824546243559

$$$$

     RDKit          3D

 78 83  0  0  0  0  0  0  0  0999 V2000
   10.2834   43.7661   33.8256 C   0  0  0  0  0  0  0  0  0  0  0  0
   11.4102   43.5930   34.3752 O   0  0  0  0  0  0  0  0  0  0  0  0
    9.3637   42.7255   33.7349 O   0  0  0  0  0  0  0  0  0  0  0  0
    9.8902   41.2267   34.2942 P   0  0  0  0  0  0  0  0  0  0  0  0
   10.3736   41.4560   35.8836 O   0  0  0  0  0  0  0  0  0  0  0  0
    9.9546   45.0694   33.2035 C   0  0  1  0  0  0  0  0  0  0  0  0
   11.0274   46.0321   33.4755 N   0  0  0  0  0  0  0  0  0  0  0  0
    9.7465   44.8480   31.6875 C   0  0  0  0  0  0  0  0  0  0  0  0
    8.7923   45.8408   31.0844 C   0  0  0  0  0  0  0  0  0  0  0  0
    7.4055   45.6018   31.0994 C   0  0  0  0  0  0  0  0  0  0  0  0
    9.2823   46.9879   30.4426 C   0  0  0  0  0  0  0  0  0  0  0  0
    6.5267   46.5035   30.4845 C   0  0  0  0  0  0  0  0  0  0  0  0
    8.4033   47.8903   29.8323 C   0  0  0  0  0  0  0  0  0  0  0  0
    7.0141   47.6519   29.8461 C   0  0  0  0  0  0  0  0  0  0  0  0
    6.0890   48.5163   29.2375 O   0  0  0  0  0  0  0  0  0  0  0  0
    6.4218   49.6845   28.4839 C   0  0  2  0  0  0  0  0  0  0  0  0
    5.1602   50.5018   28.2084 C   0  0  0  0  0  0  0  0  0  0  0  0
    7.1363   49.3480   27.1828 C   0  0  0  0  0  0  0  0  0  0  0  0
    8.1095   50.2684   26.7237 C   0  0  0  0  0  0  0  0  0  0  0  0
    6.9097   48.1389   26.4359 C   0  0  0  0  0  0  0  0  0  0  0  0
    8.8339   49.9585   25.5808 C   0  0  0  0  0  0  0  0  0  0  0  0
    7.6913   47.8721   25.2890 C   0  0  0  0  0  0  0  0  0  0  0  0
    5.9204   47.1719   26.8207 N   0  0  0  0  0  0  0  0  0  0  0  0
    9.8266   50.6973   24.9664 O   0  0  0  0  0  0  0  0  0  0  0  0
    8.6366   48.8093   24.8963 C   0  0  0  0  0  0  0  0  0  0  0  0
    6.1900   45.8297   26.6835 O   0  0  0  0  0  0  0  0  0  0  0  0
    4.7501   47.5277   27.0644 O   0  0  0  0  0  0  0  0  0  0  0  0
   10.2803   49.9625   23.8215 C   0  0  0  0  0  0  0  0  0  0  0  0
    9.4940   48.7632   23.8139 O   0  0  0  0  0  0  0  0  0  0  0  0
    8.8121   40.1850   34.2131 O   0  0  0  0  0  0  0  0  0  0  0  0
   11.2404   40.7941   33.3690 O   0  0  0  0  0  0  0  0  0  0  0  0
   10.9143   40.6898   31.9972 C   0  0  0  0  0  0  0  0  0  0  0  0
   11.5261   39.3885   31.4376 C   0  0  0  0  0  0  0  0  0  0  0  0
   12.7504   39.0888   32.0816 O   0  0  0  0  0  0  0  0  0  0  0  0
   10.6115   38.1910   31.6460 C   0  0  0  0  0  0  0  0  0  0  0  0
   12.9357   37.6812   32.0303 C   0  0  0  0  0  0  0  0  0  0  0  0
    9.6146   38.0859   30.6533 O   0  0  0  0  0  0  0  0  0  0  0  0
   11.5769   37.0148   31.7012 C   0  0  0  0  0  0  0  0  0  0  0  0
   13.4849   37.2112   33.3247 N   0  0  0  0  0  0  0  0  0  0  0  0
   11.6193   36.3261   30.4724 O   0  0  0  0  0  0  0  0  0  0  0  0
   14.4802   36.3313   33.5730 C   0  0  0  0  0  0  0  0  0  0  0  0
   13.1141   37.6268   34.5698 C   0  0  0  0  0  0  0  0  0  0  0  0
   15.2075   35.6151   32.6741 N   0  0  0  0  0  0  0  0  0  0  0  0
   14.6761   36.2300   34.9184 C   0  0  0  0  0  0  0  0  0  0  0  0
   13.8220   37.0445   35.5789 N   0  0  0  0  0  0  0  0  0  0  0  0
   16.1642   34.7600   33.1547 C   0  0  0  0  0  0  0  0  0  0  0  0
   15.6529   35.3503   35.4131 C   0  0  0  0  0  0  0  0  0  0  0  0
   16.3797   34.6314   34.5042 N   0  0  0  0  0  0  0  0  0  0  0  0
   15.9004   35.1930   36.8090 N   0  0  0  0  0  0  0  0  0  0  0  0
    9.0121   45.4317   33.6713 H   0  0  0  0  0  0  0  0  0  0  0  0
   10.7260   46.9687   33.1212 H   0  0  0  0  0  0  0  0  0  0  0  0
   11.8906   45.7658   32.9468 H   0  0  0  0  0  0  0  0  0  0  0  0
   10.7229   44.8814   31.1555 H   0  0  0  0  0  0  0  0  0  0  0  0
    9.3413   43.8329   31.4762 H   0  0  0  0  0  0  0  0  0  0  0  0
    7.0083   44.7168   31.5811 H   0  0  0  0  0  0  0  0  0  0  0  0
   10.3469   47.1850   30.4120 H   0  0  0  0  0  0  0  0  0  0  0  0
    5.4623   46.3059   30.4996 H   0  0  0  0  0  0  0  0  0  0  0  0
    8.8172   48.7645   29.3505 H   0  0  0  0  0  0  0  0  0  0  0  0
    7.0764   50.3238   29.1182 H   0  0  0  0  0  0  0  0  0  0  0  0
    4.6452   50.7300   29.1656 H   0  0  0  0  0  0  0  0  0  0  0  0
    4.4570   49.9541   27.5500 H   0  0  0  0  0  0  0  0  0  0  0  0
    5.4285   51.4621   27.7183 H   0  0  0  0  0  0  0  0  0  0  0  0
    8.3072   51.1927   27.2520 H   0  0  0  0  0  0  0  0  0  0  0  0
    7.5513   46.9682   24.7103 H   0  0  0  0  0  0  0  0  0  0  0  0
   11.3572   49.7140   23.9267 H   0  0  0  0  0  0  0  0  0  0  0  0
   10.0989   50.5456   22.8943 H   0  0  0  0  0  0  0  0  0  0  0  0
   11.3779   41.5526   31.4726 H   0  0  0  0  0  0  0  0  0  0  0  0
    9.8233   40.7191   31.7647 H   0  0  0  0  0  0  0  0  0  0  0  0
   11.7283   39.5312   30.3515 H   0  0  0  0  0  0  0  0  0  0  0  0
   10.1127   38.2734   32.6376 H   0  0  0  0  0  0  0  0  0  0  0  0
   13.6692   37.4566   31.2242 H   0  0  0  0  0  0  0  0  0  0  0  0
   10.0533   38.1118   29.7635 H   0  0  0  0  0  0  0  0  0  0  0  0
   11.2607   36.3148   32.5102 H   0  0  0  0  0  0  0  0  0  0  0  0
   12.1496   35.5023   30.6324 H   0  0  0  0  0  0  0  0  0  0  0  0
   12.3301   38.3524   34.7455 H   0  0  0  0  0  0  0  0  0  0  0  0
   16.7563   34.1781   32.4619 H   0  0  0  0  0  0  0  0  0  0  0  0
   15.3536   35.7357   37.5140 H   0  0  0  0  0  0  0  0  0  0  0  0
   16.6351   34.5298   37.1416 H   0  0  0  0  0  0  0  0  0  0  0  0
  1  2  2  0
  1  3  1  0
  3  4  1  0
  4  5  1  0
  6  1  1  0
  7  6  1  0
  6  8  1  0
  8  9  1  0
  9 10  2  0
 11  9  1  0
 10 12  1  0
 13 11  2  0
 12 14  2  0
 14 13  1  0
 14 15  1  0
 15 16  1  0
 16 17  1  0
 16 18  1  0
 18 19  2  0
 20 18  1  0
 19 21  1  0
 22 20  2  0
 20 23  1  0
 21 24  1  0
 21 25  2  0
 25 22  1  0
 23 26  1  0
 23 27  2  0
 24 28  1  0
 25 29  1  0
 28 29  1  0
  4 30  2  0
  4 31  1  0
 32 31  1  0
 32 33  1  0
 33 34  1  0
 33 35  1  0
 34 36  1  0
 35 37  1  0
 35 38  1  0
 38 36  1  0
 36 39  1  0
 38 40  1  0
 41 39  1  0
 42 39  1  0
 43 41  2  0
 41 44  1  0
 45 42  2  0
 46 43  1  0
 44 47  2  0
 44 45  1  0
 48 46  2  0
 48 47  1  0
 47 49  1  0
  6 50  1  1
  7 51  1  0
  7 52  1  0
  8 53  1  0
  8 54  1  0
 10 55  1  0
 11 56  1  0
 12 57  1  0
 13 58  1  0
 16 59  1  1
 17 60  1  0
 17 61  1  0
 17 62  1  0
 19 63  1  0
 22 64  1  0
 28 65  1  0
 28 66  1  0
 32 67  1  0
 32 68  1  0
 33 69  1  0
 35 70  1  0
 36 71  1  0
 37 72  1  0
 38 73  1  0
 40 74  1  0
 42 75  1  0
 46 76  1  0
 49 77  1  0
 49 78  1  0
M  CHG  3   5  -1  23   1  26  -1
M  END
>  <EmbedRMS>  (11) 
0.0816342239364

$$$$

     RDKit          3D

 78 83  0  0  0  0  0  0  0  0999 V2000
   10.2835   43.7662   33.8257 C   0  0  0  0  0  0  0  0  0  0  0  0
   11.4102   43.5931   34.3753 O   0  0  0  0  0  0  0  0  0  0  0  0
    9.3640   42.7253   33.7348 O   0  0  0  0  0  0  0  0  0  0  0  0
    9.8907   41.2265   34.2939 P   0  0  0  0  0  0  0  0  0  0  0  0
   10.3733   41.4558   35.8835 O   0  0  0  0  0  0  0  0  0  0  0  0
    9.9546   45.0694   33.2035 C   0  0  1  0  0  0  0  0  0  0  0  0
   11.0272   46.0323   33.4756 N   0  0  0  0  0  0  0  0  0  0  0  0
    9.7467   44.8478   31.6876 C   0  0  0  0  0  0  0  0  0  0  0  0
    8.7924   45.8402   31.0842 C   0  0  0  0  0  0  0  0  0  0  0  0
    7.4062   45.6012   31.0986 C   0  0  0  0  0  0  0  0  0  0  0  0
    9.2817   46.9870   30.4426 C   0  0  0  0  0  0  0  0  0  0  0  0
    6.5280   46.5033   30.4839 C   0  0  0  0  0  0  0  0  0  0  0  0
    8.4030   47.8896   29.8322 C   0  0  0  0  0  0  0  0  0  0  0  0
    7.0128   47.6546   29.8471 C   0  0  0  0  0  0  0  0  0  0  0  0
    6.0717   48.5230   29.2635 O   0  0  0  0  0  0  0  0  0  0  0  0
    6.3265   49.7420   28.5526 C   0  0  2  0  0  0  0  0  0  0  0  0
    6.9371   49.4315   27.1766 C   0  0  0  0  0  0  0  0  0  0  0  0
    7.0757   50.7554   29.4198 C   0  0  0  0  0  0  0  0  0  0  0  0
    8.2293   51.4253   28.9274 C   0  0  0  0  0  0  0  0  0  0  0  0
    6.6398   51.0282   30.7625 C   0  0  0  0  0  0  0  0  0  0  0  0
    8.9147   52.2848   29.7751 C   0  0  0  0  0  0  0  0  0  0  0  0
    7.3899   51.9033   31.5813 C   0  0  0  0  0  0  0  0  0  0  0  0
    5.4554   50.4237   31.3097 N   0  0  0  0  0  0  0  0  0  0  0  0
   10.0553   53.0193   29.5124 O   0  0  0  0  0  0  0  0  0  0  0  0
    8.5162   52.5098   31.0464 C   0  0  0  0  0  0  0  0  0  0  0  0
    4.2891   50.3899   30.5816 O   0  0  0  0  0  0  0  0  0  0  0  0
    5.4219   50.0948   32.5136 O   0  0  0  0  0  0  0  0  0  0  0  0
   10.3924   53.7524   30.6979 C   0  0  0  0  0  0  0  0  0  0  0  0
    9.3832   53.3982   31.6530 O   0  0  0  0  0  0  0  0  0  0  0  0
    8.8126   40.1848   34.2123 O   0  0  0  0  0  0  0  0  0  0  0  0
   11.2418   40.7943   33.3694 O   0  0  0  0  0  0  0  0  0  0  0  0
   10.9179   40.6904   31.9970 C   0  0  0  0  0  0  0  0  0  0  0  0
   11.5181   39.3814   31.4408 C   0  0  0  0  0  0  0  0  0  0  0  0
   12.7497   39.0870   32.0745 O   0  0  0  0  0  0  0  0  0  0  0  0
   10.6045   38.1891   31.6655 C   0  0  0  0  0  0  0  0  0  0  0  0
   12.9344   37.6801   32.0290 C   0  0  0  0  0  0  0  0  0  0  0  0
    9.6418   38.0758   30.6441 O   0  0  0  0  0  0  0  0  0  0  0  0
   11.5741   37.0170   31.7045 C   0  0  0  0  0  0  0  0  0  0  0  0
   13.4851   37.2126   33.3241 N   0  0  0  0  0  0  0  0  0  0  0  0
   11.6079   36.3407   30.4680 O   0  0  0  0  0  0  0  0  0  0  0  0
   14.4801   36.3321   33.5727 C   0  0  0  0  0  0  0  0  0  0  0  0
   13.1140   37.6277   34.5693 C   0  0  0  0  0  0  0  0  0  0  0  0
   15.2073   35.6155   32.6739 N   0  0  0  0  0  0  0  0  0  0  0  0
   14.6758   36.2306   34.9182 C   0  0  0  0  0  0  0  0  0  0  0  0
   13.8217   37.0451   35.5785 N   0  0  0  0  0  0  0  0  0  0  0  0
   16.1639   34.7602   33.1546 C   0  0  0  0  0  0  0  0  0  0  0  0
   15.6526   35.3506   35.4130 C   0  0  0  0  0  0  0  0  0  0  0  0
   16.3794   34.6316   34.5041 N   0  0  0  0  0  0  0  0  0  0  0  0
   15.9001   35.1933   36.8089 N   0  0  0  0  0  0  0  0  0  0  0  0
    9.0119   45.4316   33.6713 H   0  0  0  0  0  0  0  0  0  0  0  0
   11.8904   45.7662   32.9469 H   0  0  0  0  0  0  0  0  0  0  0  0
   10.7255   46.9689   33.1213 H   0  0  0  0  0  0  0  0  0  0  0  0
   10.7232   44.8813   31.1557 H   0  0  0  0  0  0  0  0  0  0  0  0
    9.3418   43.8326   31.4763 H   0  0  0  0  0  0  0  0  0  0  0  0
    7.0086   44.7168   31.5810 H   0  0  0  0  0  0  0  0  0  0  0  0
   10.3463   47.1847   30.4132 H   0  0  0  0  0  0  0  0  0  0  0  0
    5.4634   46.3077   30.5051 H   0  0  0  0  0  0  0  0  0  0  0  0
    8.8251   48.7600   29.3587 H   0  0  0  0  0  0  0  0  0  0  0  0
    5.3382   50.1957   28.3293 H   0  0  0  0  0  0  0  0  0  0  0  0
    6.3149   48.6705   26.6596 H   0  0  0  0  0  0  0  0  0  0  0  0
    6.9468   50.3449   26.5445 H   0  0  0  0  0  0  0  0  0  0  0  0
    7.9674   49.0328   27.2609 H   0  0  0  0  0  0  0  0  0  0  0  0
    8.6072   51.2787   27.9263 H   0  0  0  0  0  0  0  0  0  0  0  0
    7.0903   52.1191   32.5988 H   0  0  0  0  0  0  0  0  0  0  0  0
   11.3937   53.4464   31.0670 H   0  0  0  0  0  0  0  0  0  0  0  0
   10.3629   54.8437   30.4961 H   0  0  0  0  0  0  0  0  0  0  0  0
    9.8289   40.7385   31.7618 H   0  0  0  0  0  0  0  0  0  0  0  0
   11.3944   41.5459   31.4722 H   0  0  0  0  0  0  0  0  0  0  0  0
   11.6994   39.5070   30.3484 H   0  0  0  0  0  0  0  0  0  0  0  0
   10.1090   38.2634   32.6632 H   0  0  0  0  0  0  0  0  0  0  0  0
   13.6662   37.4515   31.2224 H   0  0  0  0  0  0  0  0  0  0  0  0
    8.9009   38.6925   30.8793 H   0  0  0  0  0  0  0  0  0  0  0  0
   11.2650   36.3083   32.5087 H   0  0  0  0  0  0  0  0  0  0  0  0
   12.1372   35.5140   30.6163 H   0  0  0  0  0  0  0  0  0  0  0  0
   12.3297   38.3530   34.7450 H   0  0  0  0  0  0  0  0  0  0  0  0
   16.7558   34.1781   32.4618 H   0  0  0  0  0  0  0  0  0  0  0  0
   15.3533   35.7360   37.5138 H   0  0  0  0  0  0  0  0  0  0  0  0
   16.6346   34.5300   37.1414 H   0  0  0  0  0  0  0  0  0  0  0  0
  1  2  2  0
  1  3  1  0
  3  4  1  0
  4  5  1  0
  6  1  1  0
  7  6  1  0
  6  8  1  0
  8  9  1  0
  9 10  2  0
 11  9  1  0
 10 12  1  0
 13 11  2  0
 12 14  2  0
 14 13  1  0
 14 15  1  0
 15 16  1  0
 16 17  1  0
 16 18  1  0
 18 19  2  0
 20 18  1  0
 19 21  1  0
 22 20  2  0
 20 23  1  0
 21 24  1  0
 21 25  2  0
 25 22  1  0
 23 26  1  0
 23 27  2  0
 24 28  1  0
 25 29  1  0
 28 29  1  0
  4 30  2  0
  4 31  1  0
 32 31  1  0
 32 33  1  0
 33 34  1  0
 33 35  1  0
 34 36  1  0
 35 37  1  0
 35 38  1  0
 38 36  1  0
 36 39  1  0
 38 40  1  0
 41 39  1  0
 42 39  1  0
 43 41  2  0
 41 44  1  0
 45 42  2  0
 46 43  1  0
 44 47  2  0
 44 45  1  0
 48 46  2  0
 48 47  1  0
 47 49  1  0
  6 50  1  1
  7 51  1  0
  7 52  1  0
  8 53  1  0
  8 54  1  0
 10 55  1  0
 11 56  1  0
 12 57  1  0
 13 58  1  0
 16 59  1  6
 17 60  1  0
 17 61  1  0
 17 62  1  0
 19 63  1  0
 22 64  1  0
 28 65  1  0
 28 66  1  0
 32 67  1  0
 32 68  1  0
 33 69  1  0
 35 70  1  0
 36 71  1  0
 37 72  1  0
 38 73  1  0
 40 74  1  0
 42 75  1  0
 46 76  1  0
 49 77  1  0
 49 78  1  0
M  CHG  3   5  -1  23   1  26  -1
M  END
>  <EmbedRMS>  (12) 
0.0828312050158

$$$$

     RDKit          3D

 78 83  0  0  0  0  0  0  0  0999 V2000
   10.2834   43.7662   33.8258 C   0  0  0  0  0  0  0  0  0  0  0  0
   11.4102   43.5930   34.3753 O   0  0  0  0  0  0  0  0  0  0  0  0
    9.3635   42.7257   33.7353 O   0  0  0  0  0  0  0  0  0  0  0  0
    9.8899   41.2269   34.2948 P   0  0  0  0  0  0  0  0  0  0  0  0
   10.3732   41.4562   35.8842 O   0  0  0  0  0  0  0  0  0  0  0  0
    9.9547   45.0695   33.2037 C   0  0  1  0  0  0  0  0  0  0  0  0
   11.0274   46.0322   33.4757 N   0  0  0  0  0  0  0  0  0  0  0  0
    9.7465   44.8481   31.6879 C   0  0  0  0  0  0  0  0  0  0  0  0
    8.7922   45.8409   31.0849 C   0  0  0  0  0  0  0  0  0  0  0  0
    7.4058   45.6013   31.0987 C   0  0  0  0  0  0  0  0  0  0  0  0
    9.2820   46.9873   30.4421 C   0  0  0  0  0  0  0  0  0  0  0  0
    6.5273   46.5025   30.4829 C   0  0  0  0  0  0  0  0  0  0  0  0
    8.4034   47.8895   29.8305 C   0  0  0  0  0  0  0  0  0  0  0  0
    7.0132   47.6546   29.8489 C   0  0  0  0  0  0  0  0  0  0  0  0
    6.0818   48.5191   29.2497 O   0  0  0  0  0  0  0  0  0  0  0  0
    6.3605   49.8062   28.6966 C   0  0  2  0  0  0  0  0  0  0  0  0
    6.6635   50.8298   29.7996 C   0  0  0  0  0  0  0  0  0  0  0  0
    5.1912   50.2549   27.8340 C   0  0  0  0  0  0  0  0  0  0  0  0
    5.4372   50.5031   26.4600 C   0  0  0  0  0  0  0  0  0  0  0  0
    3.8696   50.4774   28.3550 C   0  0  0  0  0  0  0  0  0  0  0  0
    4.3956   50.9692   25.6688 C   0  0  0  0  0  0  0  0  0  0  0  0
    2.8538   50.9668   27.5029 C   0  0  0  0  0  0  0  0  0  0  0  0
    3.5424   50.2308   29.7295 N   0  0  0  0  0  0  0  0  0  0  0  0
    4.4121   51.2784   24.3223 O   0  0  0  0  0  0  0  0  0  0  0  0
    3.1597   51.1940   26.1687 C   0  0  0  0  0  0  0  0  0  0  0  0
    3.6845   48.9692   30.2563 O   0  0  0  0  0  0  0  0  0  0  0  0
    2.8878   51.0792   30.3697 O   0  0  0  0  0  0  0  0  0  0  0  0
    3.0999   51.7254   23.9549 C   0  0  0  0  0  0  0  0  0  0  0  0
    2.3316   51.6561   25.1639 O   0  0  0  0  0  0  0  0  0  0  0  0
    8.8120   40.1850   34.2133 O   0  0  0  0  0  0  0  0  0  0  0  0
   11.2403   40.7947   33.3700 O   0  0  0  0  0  0  0  0  0  0  0  0
   10.9144   40.6914   31.9982 C   0  0  0  0  0  0  0  0  0  0  0  0
   11.5270   39.3912   31.4385 C   0  0  0  0  0  0  0  0  0  0  0  0
   12.7520   39.0911   32.0836 O   0  0  0  0  0  0  0  0  0  0  0  0
   10.6113   38.1932   31.6451 C   0  0  0  0  0  0  0  0  0  0  0  0
   12.9413   37.6838   32.0297 C   0  0  0  0  0  0  0  0  0  0  0  0
    9.6064   38.0878   30.6599 O   0  0  0  0  0  0  0  0  0  0  0  0
   11.5822   37.0197   31.6877 C   0  0  0  0  0  0  0  0  0  0  0  0
   13.4840   37.2104   33.3254 N   0  0  0  0  0  0  0  0  0  0  0  0
   11.6179   36.3072   30.4690 O   0  0  0  0  0  0  0  0  0  0  0  0
   14.4797   36.3309   33.5738 C   0  0  0  0  0  0  0  0  0  0  0  0
   13.1137   37.6269   34.5702 C   0  0  0  0  0  0  0  0  0  0  0  0
   15.2074   35.6152   32.6747 N   0  0  0  0  0  0  0  0  0  0  0  0
   14.6756   36.2298   34.9190 C   0  0  0  0  0  0  0  0  0  0  0  0
   13.8217   37.0445   35.5793 N   0  0  0  0  0  0  0  0  0  0  0  0
   16.1643   34.7603   33.1551 C   0  0  0  0  0  0  0  0  0  0  0  0
   15.6528   35.3503   35.4136 C   0  0  0  0  0  0  0  0  0  0  0  0
   16.3798   34.6316   34.5046 N   0  0  0  0  0  0  0  0  0  0  0  0
   15.9004   35.1930   36.8094 N   0  0  0  0  0  0  0  0  0  0  0  0
    9.0121   45.4318   33.6717 H   0  0  0  0  0  0  0  0  0  0  0  0
   11.8907   45.7657   32.9470 H   0  0  0  0  0  0  0  0  0  0  0  0
   10.7261   46.9687   33.1212 H   0  0  0  0  0  0  0  0  0  0  0  0
    9.3413   43.8330   31.4765 H   0  0  0  0  0  0  0  0  0  0  0  0
   10.7228   44.8814   31.1558 H   0  0  0  0  0  0  0  0  0  0  0  0
    7.0085   44.7163   31.5803 H   0  0  0  0  0  0  0  0  0  0  0  0
   10.3469   47.1827   30.4091 H   0  0  0  0  0  0  0  0  0  0  0  0
    5.4628   46.3055   30.5005 H   0  0  0  0  0  0  0  0  0  0  0  0
    8.8227   48.7554   29.3402 H   0  0  0  0  0  0  0  0  0  0  0  0
    7.2638   49.7284   28.0536 H   0  0  0  0  0  0  0  0  0  0  0  0
    7.6267   50.5912   30.2947 H   0  0  0  0  0  0  0  0  0  0  0  0
    6.7459   51.8487   29.3645 H   0  0  0  0  0  0  0  0  0  0  0  0
    5.8757   50.8304   30.5789 H   0  0  0  0  0  0  0  0  0  0  0  0
    6.4142   50.3505   26.0193 H   0  0  0  0  0  0  0  0  0  0  0  0
    1.8519   51.1490   27.8701 H   0  0  0  0  0  0  0  0  0  0  0  0
    3.1399   52.7717   23.5858 H   0  0  0  0  0  0  0  0  0  0  0  0
    2.6660   51.0523   23.1860 H   0  0  0  0  0  0  0  0  0  0  0  0
    9.8234   40.7201   31.7654 H   0  0  0  0  0  0  0  0  0  0  0  0
   11.3777   41.5549   31.4744 H   0  0  0  0  0  0  0  0  0  0  0  0
   11.7312   39.5363   30.3532 H   0  0  0  0  0  0  0  0  0  0  0  0
   10.1203   38.2696   32.6410 H   0  0  0  0  0  0  0  0  0  0  0  0
   13.6850   37.4639   31.2321 H   0  0  0  0  0  0  0  0  0  0  0  0
   10.0251   38.1792   29.7654 H   0  0  0  0  0  0  0  0  0  0  0  0
   11.2757   36.3135   32.4907 H   0  0  0  0  0  0  0  0  0  0  0  0
   11.9838   36.9111   29.7708 H   0  0  0  0  0  0  0  0  0  0  0  0
   12.3307   38.3536   34.7458 H   0  0  0  0  0  0  0  0  0  0  0  0
   16.7566   34.1787   32.4623 H   0  0  0  0  0  0  0  0  0  0  0  0
   15.3535   35.7355   37.5144 H   0  0  0  0  0  0  0  0  0  0  0  0
   16.6353   34.5300   37.1419 H   0  0  0  0  0  0  0  0  0  0  0  0
  1  2  2  0
  1  3  1  0
  3  4  1  0
  4  5  1  0
  6  1  1  0
  7  6  1  0
  6  8  1  0
  8  9  1  0
  9 10  2  0
 11  9  1  0
 10 12  1  0
 13 11  2  0
 12 14  2  0
 14 13  1  0
 14 15  1  0
 15 16  1  0
 16 17  1  0
 16 18  1  0
 18 19  2  0
 20 18  1  0
 19 21  1  0
 22 20  2  0
 20 23  1  0
 21 24  1  0
 21 25  2  0
 25 22  1  0
 23 26  1  0
 23 27  2  0
 24 28  1  0
 25 29  1  0
 28 29  1  0
  4 30  2  0
  4 31  1  0
 32 31  1  0
 32 33  1  0
 33 34  1  0
 33 35  1  0
 34 36  1  0
 35 37  1  0
 35 38  1  0
 38 36  1  0
 36 39  1  0
 38 40  1  0
 41 39  1  0
 42 39  1  0
 43 41  2  0
 41 44  1  0
 45 42  2  0
 46 43  1  0
 44 47  2  0
 44 45  1  0
 48 46  2  0
 48 47  1  0
 47 49  1  0
  6 50  1  1
  7 51  1  0
  7 52  1  0
  8 53  1  0
  8 54  1  0
 10 55  1  0
 11 56  1  0
 12 57  1  0
 13 58  1  0
 16 59  1  6
 17 60  1  0
 17 61  1  0
 17 62  1  0
 19 63  1  0
 22 64  1  0
 28 65  1  0
 28 66  1  0
 32 67  1  0
 32 68  1  0
 33 69  1  0
 35 70  1  0
 36 71  1  0
 37 72  1  0
 38 73  1  0
 40 74  1  0
 42 75  1  0
 46 76  1  0
 49 77  1  0
 49 78  1  0
M  CHG  3   5  -1  23   1  26  -1
M  END
>  <EmbedRMS>  (13) 
0.0808163005125

$$$$

     RDKit          3D

 78 83  0  0  0  0  0  0  0  0999 V2000
   10.2804   43.7664   33.8250 C   0  0  0  0  0  0  0  0  0  0  0  0
   11.4111   43.5918   34.3667 O   0  0  0  0  0  0  0  0  0  0  0  0
    9.3619   42.7249   33.7345 O   0  0  0  0  0  0  0  0  0  0  0  0
    9.8899   41.2266   34.2940 P   0  0  0  0  0  0  0  0  0  0  0  0
   10.3734   41.4566   35.8833 O   0  0  0  0  0  0  0  0  0  0  0  0
    9.9460   45.0735   33.2111 C   0  0  1  0  0  0  0  0  0  0  0  0
   11.0267   46.0292   33.4709 N   0  0  0  0  0  0  0  0  0  0  0  0
    9.7543   44.8540   31.6948 C   0  0  0  0  0  0  0  0  0  0  0  0
    8.7963   45.8410   31.0846 C   0  0  0  0  0  0  0  0  0  0  0  0
    7.4101   45.6009   31.1011 C   0  0  0  0  0  0  0  0  0  0  0  0
    9.2823   46.9874   30.4402 C   0  0  0  0  0  0  0  0  0  0  0  0
    6.5269   46.5000   30.4867 C   0  0  0  0  0  0  0  0  0  0  0  0
    8.3988   47.8860   29.8322 C   0  0  0  0  0  0  0  0  0  0  0  0
    7.0162   47.6552   29.8444 C   0  0  0  0  0  0  0  0  0  0  0  0
    6.1952   48.6003   29.2021 O   0  0  0  0  0  0  0  0  0  0  0  0
    4.7721   48.5802   29.0298 C   0  0  2  0  0  0  0  0  0  0  0  0
    4.0646   48.8747   30.3618 C   0  0  0  0  0  0  0  0  0  0  0  0
    4.2944   47.3441   28.2653 C   0  0  0  0  0  0  0  0  0  0  0  0
    3.4472   46.3860   28.8878 C   0  0  0  0  0  0  0  0  0  0  0  0
    4.6191   47.1734   26.8734 C   0  0  0  0  0  0  0  0  0  0  0  0
    2.9972   45.3051   28.1426 C   0  0  0  0  0  0  0  0  0  0  0  0
    4.1171   46.0578   26.1658 C   0  0  0  0  0  0  0  0  0  0  0  0
    5.3934   48.1417   26.1458 N   0  0  0  0  0  0  0  0  0  0  0  0
    2.1879   44.2611   28.5481 O   0  0  0  0  0  0  0  0  0  0  0  0
    3.3191   45.1469   26.8404 C   0  0  0  0  0  0  0  0  0  0  0  0
    5.0636   48.4345   24.8425 O   0  0  0  0  0  0  0  0  0  0  0  0
    6.4825   48.5521   26.5934 O   0  0  0  0  0  0  0  0  0  0  0  0
    1.9925   43.3909   27.4252 C   0  0  0  0  0  0  0  0  0  0  0  0
    2.7315   43.9946   26.3548 O   0  0  0  0  0  0  0  0  0  0  0  0
    8.8123   40.1844   34.2133 O   0  0  0  0  0  0  0  0  0  0  0  0
   11.2405   40.7942   33.3691 O   0  0  0  0  0  0  0  0  0  0  0  0
   10.9150   40.6905   31.9972 C   0  0  0  0  0  0  0  0  0  0  0  0
   11.5252   39.3886   31.4375 C   0  0  0  0  0  0  0  0  0  0  0  0
   12.7499   39.0874   32.0799 O   0  0  0  0  0  0  0  0  0  0  0  0
   10.6092   38.1926   31.6469 C   0  0  0  0  0  0  0  0  0  0  0  0
   12.9332   37.6793   32.0294 C   0  0  0  0  0  0  0  0  0  0  0  0
    9.6122   38.0894   30.6542 O   0  0  0  0  0  0  0  0  0  0  0  0
   11.5743   37.0145   31.7024 C   0  0  0  0  0  0  0  0  0  0  0  0
   13.4844   37.2108   33.3241 N   0  0  0  0  0  0  0  0  0  0  0  0
   11.6298   36.3239   30.4740 O   0  0  0  0  0  0  0  0  0  0  0  0
   14.4802   36.3313   33.5727 C   0  0  0  0  0  0  0  0  0  0  0  0
   13.1138   37.6267   34.5692 C   0  0  0  0  0  0  0  0  0  0  0  0
   15.2075   35.6149   32.6739 N   0  0  0  0  0  0  0  0  0  0  0  0
   14.6761   36.2303   34.9182 C   0  0  0  0  0  0  0  0  0  0  0  0
   13.8220   37.0447   35.5785 N   0  0  0  0  0  0  0  0  0  0  0  0
   16.1643   34.7600   33.1547 C   0  0  0  0  0  0  0  0  0  0  0  0
   15.6529   35.3505   35.4130 C   0  0  0  0  0  0  0  0  0  0  0  0
   16.3798   34.6315   34.5042 N   0  0  0  0  0  0  0  0  0  0  0  0
   15.9002   35.1932   36.8090 N   0  0  0  0  0  0  0  0  0  0  0  0
    8.9995   45.4381   33.6720 H   0  0  0  0  0  0  0  0  0  0  0  0
   11.0501   46.2277   34.4983 H   0  0  0  0  0  0  0  0  0  0  0  0
   10.7765   46.9368   33.0159 H   0  0  0  0  0  0  0  0  0  0  0  0
   10.7416   44.9076   31.1836 H   0  0  0  0  0  0  0  0  0  0  0  0
    9.3648   43.8352   31.4710 H   0  0  0  0  0  0  0  0  0  0  0  0
    7.0158   44.7169   31.5871 H   0  0  0  0  0  0  0  0  0  0  0  0
   10.3461   47.1876   30.4054 H   0  0  0  0  0  0  0  0  0  0  0  0
    5.4772   46.2781   30.5302 H   0  0  0  0  0  0  0  0  0  0  0  0
    8.7923   48.7667   29.3403 H   0  0  0  0  0  0  0  0  0  0  0  0
    4.5196   49.4503   28.3854 H   0  0  0  0  0  0  0  0  0  0  0  0
    2.9652   48.9249   30.2099 H   0  0  0  0  0  0  0  0  0  0  0  0
    4.4024   49.8598   30.7480 H   0  0  0  0  0  0  0  0  0  0  0  0
    4.2936   48.1149   31.1341 H   0  0  0  0  0  0  0  0  0  0  0  0
    3.1409   46.4634   29.9209 H   0  0  0  0  0  0  0  0  0  0  0  0
    4.3454   45.9062   25.1186 H   0  0  0  0  0  0  0  0  0  0  0  0
    2.3958   42.3807   27.6473 H   0  0  0  0  0  0  0  0  0  0  0  0
    0.9148   43.3369   27.1642 H   0  0  0  0  0  0  0  0  0  0  0  0
   11.3800   41.5528   31.4730 H   0  0  0  0  0  0  0  0  0  0  0  0
    9.8241   40.7215   31.7641 H   0  0  0  0  0  0  0  0  0  0  0  0
   11.7266   39.5310   30.3513 H   0  0  0  0  0  0  0  0  0  0  0  0
   10.1110   38.2747   32.6387 H   0  0  0  0  0  0  0  0  0  0  0  0
   13.6652   37.4520   31.2226 H   0  0  0  0  0  0  0  0  0  0  0  0
   10.0511   38.1143   29.7645 H   0  0  0  0  0  0  0  0  0  0  0  0
   11.2762   36.3141   32.5189 H   0  0  0  0  0  0  0  0  0  0  0  0
   10.8593   35.6978   30.4640 H   0  0  0  0  0  0  0  0  0  0  0  0
   12.3294   38.3518   34.7449 H   0  0  0  0  0  0  0  0  0  0  0  0
   16.7564   34.1780   32.4620 H   0  0  0  0  0  0  0  0  0  0  0  0
   15.3534   35.7359   37.5138 H   0  0  0  0  0  0  0  0  0  0  0  0
   16.6348   34.5300   37.1416 H   0  0  0  0  0  0  0  0  0  0  0  0
  1  2  2  0
  1  3  1  0
  3  4  1  0
  4  5  1  0
  6  1  1  0
  7  6  1  0
  6  8  1  0
  8  9  1  0
  9 10  2  0
 11  9  1  0
 10 12  1  0
 13 11  2  0
 12 14  2  0
 14 13  1  0
 14 15  1  0
 15 16  1  0
 16 17  1  0
 16 18  1  0
 18 19  2  0
 20 18  1  0
 19 21  1  0
 22 20  2  0
 20 23  1  0
 21 24  1  0
 21 25  2  0
 25 22  1  0
 23 26  1  0
 23 27  2  0
 24 28  1  0
 25 29  1  0
 28 29  1  0
  4 30  2  0
  4 31  1  0
 32 31  1  0
 32 33  1  0
 33 34  1  0
 33 35  1  0
 34 36  1  0
 35 37  1  0
 35 38  1  0
 38 36  1  0
 36 39  1  0
 38 40  1  0
 41 39  1  0
 42 39  1  0
 43 41  2  0
 41 44  1  0
 45 42  2  0
 46 43  1  0
 44 47  2  0
 44 45  1  0
 48 46  2  0
 48 47  1  0
 47 49  1  0
  6 50  1  1
  7 51  1  0
  7 52  1  0
  8 53  1  0
  8 54  1  0
 10 55  1  0
 11 56  1  0
 12 57  1  0
 13 58  1  0
 16 59  1  6
 17 60  1  0
 17 61  1  0
 17 62  1  0
 19 63  1  0
 22 64  1  0
 28 65  1  0
 28 66  1  0
 32 67  1  0
 32 68  1  0
 33 69  1  0
 35 70  1  0
 36 71  1  0
 37 72  1  0
 38 73  1  0
 40 74  1  0
 42 75  1  0
 46 76  1  0
 49 77  1  0
 49 78  1  0
M  CHG  3   5  -1  23   1  26  -1
M  END
>  <EmbedRMS>  (14) 
0.0816291502889

$$$$

     RDKit          3D

 78 83  0  0  0  0  0  0  0  0999 V2000
   10.2836   43.7661   33.8256 C   0  0  0  0  0  0  0  0  0  0  0  0
   11.4103   43.5930   34.3753 O   0  0  0  0  0  0  0  0  0  0  0  0
    9.3640   42.7253   33.7346 O   0  0  0  0  0  0  0  0  0  0  0  0
    9.8908   41.2265   34.2938 P   0  0  0  0  0  0  0  0  0  0  0  0
   10.3732   41.4559   35.8835 O   0  0  0  0  0  0  0  0  0  0  0  0
    9.9547   45.0695   33.2037 C   0  0  1  0  0  0  0  0  0  0  0  0
   11.0273   46.0323   33.4761 N   0  0  0  0  0  0  0  0  0  0  0  0
    9.7471   44.8485   31.6877 C   0  0  0  0  0  0  0  0  0  0  0  0
    8.7926   45.8411   31.0848 C   0  0  0  0  0  0  0  0  0  0  0  0
    7.4060   45.6008   31.0989 C   0  0  0  0  0  0  0  0  0  0  0  0
    9.2817   46.9876   30.4415 C   0  0  0  0  0  0  0  0  0  0  0  0
    6.5248   46.5004   30.4838 C   0  0  0  0  0  0  0  0  0  0  0  0
    8.4004   47.8873   29.8313 C   0  0  0  0  0  0  0  0  0  0  0  0
    7.0182   47.6579   29.8482 C   0  0  0  0  0  0  0  0  0  0  0  0
    6.1829   48.5987   29.2238 O   0  0  0  0  0  0  0  0  0  0  0  0
    4.7554   48.6034   29.2684 C   0  0  2  0  0  0  0  0  0  0  0  0
    4.2157   49.6054   28.2471 C   0  0  0  0  0  0  0  0  0  0  0  0
    4.2417   48.9162   30.6676 C   0  0  0  0  0  0  0  0  0  0  0  0
    3.3548   47.9883   31.2679 C   0  0  0  0  0  0  0  0  0  0  0  0
    4.5653   50.1264   31.3737 C   0  0  0  0  0  0  0  0  0  0  0  0
    2.8315   48.2795   32.5205 C   0  0  0  0  0  0  0  0  0  0  0  0
    3.9878   50.3748   32.6385 C   0  0  0  0  0  0  0  0  0  0  0  0
    5.4400   51.1209   30.8242 N   0  0  0  0  0  0  0  0  0  0  0  0
    1.9611   47.5255   33.2839 O   0  0  0  0  0  0  0  0  0  0  0  0
    3.1334   49.4227   33.1762 C   0  0  0  0  0  0  0  0  0  0  0  0
    5.0824   52.4473   30.8953 O   0  0  0  0  0  0  0  0  0  0  0  0
    6.6207   50.8322   30.5452 O   0  0  0  0  0  0  0  0  0  0  0  0
    1.7026   48.2431   34.4983 C   0  0  0  0  0  0  0  0  0  0  0  0
    2.4704   49.4493   34.3880 O   0  0  0  0  0  0  0  0  0  0  0  0
    8.8127   40.1848   34.2122 O   0  0  0  0  0  0  0  0  0  0  0  0
   11.2420   40.7941   33.3697 O   0  0  0  0  0  0  0  0  0  0  0  0
   10.9187   40.6911   31.9971 C   0  0  0  0  0  0  0  0  0  0  0  0
   11.5172   39.3815   31.4407 C   0  0  0  0  0  0  0  0  0  0  0  0
   12.7493   39.0856   32.0728 O   0  0  0  0  0  0  0  0  0  0  0  0
   10.6023   38.1908   31.6665 C   0  0  0  0  0  0  0  0  0  0  0  0
   12.9319   37.6781   32.0281 C   0  0  0  0  0  0  0  0  0  0  0  0
    9.6392   38.0798   30.6452 O   0  0  0  0  0  0  0  0  0  0  0  0
   11.5715   37.0166   31.7056 C   0  0  0  0  0  0  0  0  0  0  0  0
   13.4846   37.2121   33.3235 N   0  0  0  0  0  0  0  0  0  0  0  0
   11.6187   36.3384   30.4695 O   0  0  0  0  0  0  0  0  0  0  0  0
   14.4801   36.3321   33.5724 C   0  0  0  0  0  0  0  0  0  0  0  0
   13.1137   37.6275   34.5688 C   0  0  0  0  0  0  0  0  0  0  0  0
   15.2073   35.6153   32.6738 N   0  0  0  0  0  0  0  0  0  0  0  0
   14.6759   36.2308   34.9179 C   0  0  0  0  0  0  0  0  0  0  0  0
   13.8216   37.0452   35.5781 N   0  0  0  0  0  0  0  0  0  0  0  0
   16.1640   34.7602   33.1546 C   0  0  0  0  0  0  0  0  0  0  0  0
   15.6526   35.3508   35.4129 C   0  0  0  0  0  0  0  0  0  0  0  0
   16.3794   34.6317   34.5041 N   0  0  0  0  0  0  0  0  0  0  0  0
   15.8999   35.1935   36.8088 N   0  0  0  0  0  0  0  0  0  0  0  0
    9.0120   45.4316   33.6714 H   0  0  0  0  0  0  0  0  0  0  0  0
   11.8907   45.7661   32.9477 H   0  0  0  0  0  0  0  0  0  0  0  0
   10.7259   46.9689   33.1217 H   0  0  0  0  0  0  0  0  0  0  0  0
   10.7236   44.8826   31.1559 H   0  0  0  0  0  0  0  0  0  0  0  0
    9.3426   43.8332   31.4758 H   0  0  0  0  0  0  0  0  0  0  0  0
    7.0106   44.7140   31.5788 H   0  0  0  0  0  0  0  0  0  0  0  0
   10.3460   47.1859   30.4094 H   0  0  0  0  0  0  0  0  0  0  0  0
    5.4691   46.2775   30.5034 H   0  0  0  0  0  0  0  0  0  0  0  0
    8.7936   48.7698   29.3426 H   0  0  0  0  0  0  0  0  0  0  0  0
    4.3926   47.6058   28.9346 H   0  0  0  0  0  0  0  0  0  0  0  0
    3.1060   49.6392   28.2923 H   0  0  0  0  0  0  0  0  0  0  0  0
    4.6171   50.6232   28.4258 H   0  0  0  0  0  0  0  0  0  0  0  0
    4.5151   49.2919   27.2244 H   0  0  0  0  0  0  0  0  0  0  0  0
    3.0700   47.0700   30.7703 H   0  0  0  0  0  0  0  0  0  0  0  0
    4.2099   51.2798   33.1895 H   0  0  0  0  0  0  0  0  0  0  0  0
    2.0425   47.6513   35.3740 H   0  0  0  0  0  0  0  0  0  0  0  0
    0.6217   48.4831   34.5800 H   0  0  0  0  0  0  0  0  0  0  0  0
   11.3968   41.5460   31.4729 H   0  0  0  0  0  0  0  0  0  0  0  0
    9.8299   40.7410   31.7613 H   0  0  0  0  0  0  0  0  0  0  0  0
   11.6975   39.5067   30.3481 H   0  0  0  0  0  0  0  0  0  0  0  0
   10.1076   38.2648   32.6645 H   0  0  0  0  0  0  0  0  0  0  0  0
   13.6621   37.4467   31.2209 H   0  0  0  0  0  0  0  0  0  0  0  0
    8.8975   38.6944   30.8831 H   0  0  0  0  0  0  0  0  0  0  0  0
   11.2806   36.3073   32.5170 H   0  0  0  0  0  0  0  0  0  0  0  0
   10.8492   35.7110   30.4586 H   0  0  0  0  0  0  0  0  0  0  0  0
   12.3290   38.3524   34.7444 H   0  0  0  0  0  0  0  0  0  0  0  0
   16.7559   34.1780   32.4619 H   0  0  0  0  0  0  0  0  0  0  0  0
   16.6344   34.5301   37.1414 H   0  0  0  0  0  0  0  0  0  0  0  0
   15.3531   35.7362   37.5137 H   0  0  0  0  0  0  0  0  0  0  0  0
  1  2  2  0
  1  3  1  0
  3  4  1  0
  4  5  1  0
  6  1  1  0
  7  6  1  0
  6  8  1  0
  8  9  1  0
  9 10  2  0
 11  9  1  0
 10 12  1  0
 13 11  2  0
 12 14  2  0
 14 13  1  0
 14 15  1  0
 15 16  1  0
 16 17  1  0
 16 18  1  0
 18 19  2  0
 20 18  1  0
 19 21  1  0
 22 20  2  0
 20 23  1  0
 21 24  1  0
 21 25  2  0
 25 22  1  0
 23 26  1  0
 23 27  2  0
 24 28  1  0
 25 29  1  0
 28 29  1  0
  4 30  2  0
  4 31  1  0
 32 31  1  0
 32 33  1  0
 33 34  1  0
 33 35  1  0
 34 36  1  0
 35 37  1  0
 35 38  1  0
 38 36  1  0
 36 39  1  0
 38 40  1  0
 41 39  1  0
 42 39  1  0
 43 41  2  0
 41 44  1  0
 45 42  2  0
 46 43  1  0
 44 47  2  0
 44 45  1  0
 48 46  2  0
 48 47  1  0
 47 49  1  0
  6 50  1  1
  7 51  1  0
  7 52  1  0
  8 53  1  0
  8 54  1  0
 10 55  1  0
 11 56  1  0
 12 57  1  0
 13 58  1  0
 16 59  1  6
 17 60  1  0
 17 61  1  0
 17 62  1  0
 19 63  1  0
 22 64  1  0
 28 65  1  0
 28 66  1  0
 32 67  1  0
 32 68  1  0
 33 69  1  0
 35 70  1  0
 36 71  1  0
 37 72  1  0
 38 73  1  0
 40 74  1  0
 42 75  1  0
 46 76  1  0
 49 77  1  0
 49 78  1  0
M  CHG  3   5  -1  23   1  26  -1
M  END
>  <EmbedRMS>  (15) 
0.0829298441966

$$$$

     RDKit          3D

 78 83  0  0  0  0  0  0  0  0999 V2000
   10.2840   43.7625   33.8275 C   0  0  0  0  0  0  0  0  0  0  0  0
   11.4104   43.5863   34.3768 O   0  0  0  0  0  0  0  0  0  0  0  0
    9.3634   42.7233   33.7350 O   0  0  0  0  0  0  0  0  0  0  0  0
    9.8899   41.2246   34.2938 P   0  0  0  0  0  0  0  0  0  0  0  0
   10.3723   41.4544   35.8836 O   0  0  0  0  0  0  0  0  0  0  0  0
    9.9549   45.0699   33.2063 C   0  0  1  0  0  0  0  0  0  0  0  0
   11.0198   46.0481   33.4570 N   0  0  0  0  0  0  0  0  0  0  0  0
    9.7507   44.8510   31.6922 C   0  0  0  0  0  0  0  0  0  0  0  0
    8.7946   45.8416   31.0865 C   0  0  0  0  0  0  0  0  0  0  0  0
    7.4079   45.6008   31.1006 C   0  0  0  0  0  0  0  0  0  0  0  0
    9.2826   46.9893   30.4451 C   0  0  0  0  0  0  0  0  0  0  0  0
    6.5254   46.5002   30.4861 C   0  0  0  0  0  0  0  0  0  0  0  0
    8.4008   47.8883   29.8344 C   0  0  0  0  0  0  0  0  0  0  0  0
    7.0191   47.6546   29.8432 C   0  0  0  0  0  0  0  0  0  0  0  0
    6.1879   48.5956   29.2130 O   0  0  0  0  0  0  0  0  0  0  0  0
    4.7847   48.4600   28.9814 C   0  0  2  0  0  0  0  0  0  0  0  0
    4.4990   47.4181   27.8909 C   0  0  0  0  0  0  0  0  0  0  0  0
    4.1923   49.8138   28.6198 C   0  0  0  0  0  0  0  0  0  0  0  0
    3.1860   50.3422   29.4674 C   0  0  0  0  0  0  0  0  0  0  0  0
    4.5709   50.5539   27.4448 C   0  0  0  0  0  0  0  0  0  0  0  0
    2.5871   51.5466   29.1232 C   0  0  0  0  0  0  0  0  0  0  0  0
    3.9124   51.7662   27.1395 C   0  0  0  0  0  0  0  0  0  0  0  0
    5.5912   50.0962   26.5457 N   0  0  0  0  0  0  0  0  0  0  0  0
    1.5931   52.2336   29.7933 O   0  0  0  0  0  0  0  0  0  0  0  0
    2.9325   52.2266   28.0072 C   0  0  0  0  0  0  0  0  0  0  0  0
    5.3984   50.2093   25.1882 O   0  0  0  0  0  0  0  0  0  0  0  0
    6.7365   49.8427   26.9696 O   0  0  0  0  0  0  0  0  0  0  0  0
    1.2976   53.4226   29.0479 C   0  0  0  0  0  0  0  0  0  0  0  0
    2.1754   53.3786   27.9147 O   0  0  0  0  0  0  0  0  0  0  0  0
    8.8120   40.1830   34.2119 O   0  0  0  0  0  0  0  0  0  0  0  0
   11.2417   40.7932   33.3698 O   0  0  0  0  0  0  0  0  0  0  0  0
   10.9189   40.6895   31.9972 C   0  0  0  0  0  0  0  0  0  0  0  0
   11.5194   39.3802   31.4415 C   0  0  0  0  0  0  0  0  0  0  0  0
   12.7514   39.0856   32.0751 O   0  0  0  0  0  0  0  0  0  0  0  0
   10.6057   38.1883   31.6663 C   0  0  0  0  0  0  0  0  0  0  0  0
   12.9362   37.6781   32.0314 C   0  0  0  0  0  0  0  0  0  0  0  0
    9.6428   38.0754   30.6448 O   0  0  0  0  0  0  0  0  0  0  0  0
   11.5753   37.0159   31.7054 C   0  0  0  0  0  0  0  0  0  0  0  0
   13.4857   37.2114   33.3286 N   0  0  0  0  0  0  0  0  0  0  0  0
   11.6091   36.3403   30.4684 O   0  0  0  0  0  0  0  0  0  0  0  0
   14.4814   36.3308   33.5834 C   0  0  0  0  0  0  0  0  0  0  0  0
   13.1101   37.6309   34.5703 C   0  0  0  0  0  0  0  0  0  0  0  0
   15.2081   35.6153   32.6815 N   0  0  0  0  0  0  0  0  0  0  0  0
   14.6701   36.2364   34.9300 C   0  0  0  0  0  0  0  0  0  0  0  0
   13.8139   37.0525   35.5834 N   0  0  0  0  0  0  0  0  0  0  0  0
   16.1843   34.7381   33.0885 C   0  0  0  0  0  0  0  0  0  0  0  0
   15.6368   35.3665   35.4361 C   0  0  0  0  0  0  0  0  0  0  0  0
   16.3901   34.6201   34.4800 N   0  0  0  0  0  0  0  0  0  0  0  0
   15.8880   35.2055   36.8290 N   0  0  0  0  0  0  0  0  0  0  0  0
    9.0098   45.4347   33.6668 H   0  0  0  0  0  0  0  0  0  0  0  0
   11.9349   45.6933   33.0929 H   0  0  0  0  0  0  0  0  0  0  0  0
   11.1132   46.1993   34.4883 H   0  0  0  0  0  0  0  0  0  0  0  0
   10.7312   44.8930   31.1677 H   0  0  0  0  0  0  0  0  0  0  0  0
    9.3521   43.8343   31.4757 H   0  0  0  0  0  0  0  0  0  0  0  0
    7.0130   44.7164   31.5854 H   0  0  0  0  0  0  0  0  0  0  0  0
   10.3466   47.1901   30.4163 H   0  0  0  0  0  0  0  0  0  0  0  0
    5.4680   46.2851   30.5272 H   0  0  0  0  0  0  0  0  0  0  0  0
    8.7940   48.7707   29.3455 H   0  0  0  0  0  0  0  0  0  0  0  0
    4.3042   48.1037   29.9182 H   0  0  0  0  0  0  0  0  0  0  0  0
    4.7754   46.4036   28.2429 H   0  0  0  0  0  0  0  0  0  0  0  0
    5.0790   47.6244   26.9698 H   0  0  0  0  0  0  0  0  0  0  0  0
    3.4159   47.4109   27.6436 H   0  0  0  0  0  0  0  0  0  0  0  0
    2.8663   49.8256   30.3636 H   0  0  0  0  0  0  0  0  0  0  0  0
    4.1710   52.3404   26.2590 H   0  0  0  0  0  0  0  0  0  0  0  0
    1.5092   54.3233   29.6615 H   0  0  0  0  0  0  0  0  0  0  0  0
    0.2391   53.4131   28.7133 H   0  0  0  0  0  0  0  0  0  0  0  0
   11.3961   41.5449   31.4728 H   0  0  0  0  0  0  0  0  0  0  0  0
    9.8301   40.7379   31.7611 H   0  0  0  0  0  0  0  0  0  0  0  0
   11.7008   39.5056   30.3490 H   0  0  0  0  0  0  0  0  0  0  0  0
   10.1103   38.2627   32.6641 H   0  0  0  0  0  0  0  0  0  0  0  0
   13.6689   37.4482   31.2260 H   0  0  0  0  0  0  0  0  0  0  0  0
    8.9016   38.6914   30.8807 H   0  0  0  0  0  0  0  0  0  0  0  0
   11.2656   36.3067   32.5089 H   0  0  0  0  0  0  0  0  0  0  0  0
   12.1382   35.5135   30.6163 H   0  0  0  0  0  0  0  0  0  0  0  0
   12.3251   38.3566   34.7407 H   0  0  0  0  0  0  0  0  0  0  0  0
   16.6707   34.3318   33.9389 H   0  0  0  0  0  0  0  0  0  0  0  0
   15.3435   35.7464   37.5370 H   0  0  0  0  0  0  0  0  0  0  0  0
   16.6238   34.5408   37.1554 H   0  0  0  0  0  0  0  0  0  0  0  0
  1  2  2  0
  1  3  1  0
  3  4  1  0
  4  5  1  0
  6  1  1  0
  7  6  1  0
  6  8  1  0
  8  9  1  0
  9 10  2  0
 11  9  1  0
 10 12  1  0
 13 11  2  0
 12 14  2  0
 14 13  1  0
 14 15  1  0
 15 16  1  0
 16 17  1  0
 16 18  1  0
 18 19  2  0
 20 18  1  0
 19 21  1  0
 22 20  2  0
 20 23  1  0
 21 24  1  0
 21 25  2  0
 25 22  1  0
 23 26  1  0
 23 27  2  0
 24 28  1  0
 25 29  1  0
 28 29  1  0
  4 30  2  0
  4 31  1  0
 32 31  1  0
 32 33  1  0
 33 34  1  0
 33 35  1  0
 34 36  1  0
 35 37  1  0
 35 38  1  0
 38 36  1  0
 36 39  1  0
 38 40  1  0
 41 39  1  0
 42 39  1  0
 43 41  2  0
 41 44  1  0
 45 42  2  0
 46 43  1  0
 44 47  2  0
 44 45  1  0
 48 46  2  0
 48 47  1  0
 47 49  1  0
  6 50  1  1
  7 51  1  0
  7 52  1  0
  8 53  1  0
  8 54  1  0
 10 55  1  0
 11 56  1  0
 12 57  1  0
 13 58  1  0
 16 59  1  1
 17 60  1  0
 17 61  1  0
 17 62  1  0
 19 63  1  0
 22 64  1  0
 28 65  1  0
 28 66  1  0
 32 67  1  0
 32 68  1  0
 33 69  1  0
 35 70  1  0
 36 71  1  0
 37 72  1  0
 38 73  1  0
 40 74  1  0
 42 75  1  0
 46 76  1  0
 49 77  1  0
 49 78  1  0
M  CHG  3   5  -1  23   1  26  -1
M  END
>  <EmbedRMS>  (16) 
0.0853277789187

$$$$

     RDKit          3D

 78 83  0  0  0  0  0  0  0  0999 V2000
   10.2835   43.7661   33.8257 C   0  0  0  0  0  0  0  0  0  0  0  0
   11.4102   43.5931   34.3753 O   0  0  0  0  0  0  0  0  0  0  0  0
    9.3639   42.7253   33.7348 O   0  0  0  0  0  0  0  0  0  0  0  0
    9.8907   41.2265   34.2939 P   0  0  0  0  0  0  0  0  0  0  0  0
   10.3733   41.4558   35.8835 O   0  0  0  0  0  0  0  0  0  0  0  0
    9.9546   45.0694   33.2036 C   0  0  1  0  0  0  0  0  0  0  0  0
   11.0271   46.0323   33.4756 N   0  0  0  0  0  0  0  0  0  0  0  0
    9.7467   44.8478   31.6877 C   0  0  0  0  0  0  0  0  0  0  0  0
    8.7924   45.8402   31.0842 C   0  0  0  0  0  0  0  0  0  0  0  0
    7.4062   45.6013   31.0988 C   0  0  0  0  0  0  0  0  0  0  0  0
    9.2817   46.9869   30.4425 C   0  0  0  0  0  0  0  0  0  0  0  0
    6.5280   46.5035   30.4841 C   0  0  0  0  0  0  0  0  0  0  0  0
    8.4031   47.8894   29.8319 C   0  0  0  0  0  0  0  0  0  0  0  0
    7.0128   47.6546   29.8471 C   0  0  0  0  0  0  0  0  0  0  0  0
    6.0717   48.5229   29.2633 O   0  0  0  0  0  0  0  0  0  0  0  0
    6.3270   49.7387   28.5469 C   0  0  2  0  0  0  0  0  0  0  0  0
    6.9356   49.4213   27.1716 C   0  0  0  0  0  0  0  0  0  0  0  0
    7.0784   50.7550   29.4085 C   0  0  0  0  0  0  0  0  0  0  0  0
    8.2312   51.4226   28.9109 C   0  0  0  0  0  0  0  0  0  0  0  0
    6.6455   51.0334   30.7511 C   0  0  0  0  0  0  0  0  0  0  0  0
    8.9188   52.2852   29.7537 C   0  0  0  0  0  0  0  0  0  0  0  0
    7.3978   51.9114   31.5648 C   0  0  0  0  0  0  0  0  0  0  0  0
    5.4620   50.4318   31.3031 N   0  0  0  0  0  0  0  0  0  0  0  0
   10.0590   53.0182   29.4856 O   0  0  0  0  0  0  0  0  0  0  0  0
    8.5232   52.5153   31.0250 C   0  0  0  0  0  0  0  0  0  0  0  0
    4.2942   50.3956   30.5775 O   0  0  0  0  0  0  0  0  0  0  0  0
    5.4307   50.1080   32.5084 O   0  0  0  0  0  0  0  0  0  0  0  0
   10.3991   53.7558   30.6674 C   0  0  0  0  0  0  0  0  0  0  0  0
    9.3919   53.4057   31.6262 O   0  0  0  0  0  0  0  0  0  0  0  0
    8.8126   40.1848   34.2122 O   0  0  0  0  0  0  0  0  0  0  0  0
   11.2418   40.7943   33.3694 O   0  0  0  0  0  0  0  0  0  0  0  0
   10.9179   40.6904   31.9970 C   0  0  0  0  0  0  0  0  0  0  0  0
   11.5181   39.3814   31.4408 C   0  0  0  0  0  0  0  0  0  0  0  0
   12.7497   39.0870   32.0745 O   0  0  0  0  0  0  0  0  0  0  0  0
   10.6045   38.1891   31.6655 C   0  0  0  0  0  0  0  0  0  0  0  0
   12.9344   37.6801   32.0290 C   0  0  0  0  0  0  0  0  0  0  0  0
    9.6418   38.0758   30.6441 O   0  0  0  0  0  0  0  0  0  0  0  0
   11.5741   37.0170   31.7045 C   0  0  0  0  0  0  0  0  0  0  0  0
   13.4851   37.2126   33.3241 N   0  0  0  0  0  0  0  0  0  0  0  0
   11.6079   36.3407   30.4680 O   0  0  0  0  0  0  0  0  0  0  0  0
   14.4801   36.3321   33.5727 C   0  0  0  0  0  0  0  0  0  0  0  0
   13.1140   37.6277   34.5693 C   0  0  0  0  0  0  0  0  0  0  0  0
   15.2073   35.6155   32.6739 N   0  0  0  0  0  0  0  0  0  0  0  0
   14.6758   36.2306   34.9182 C   0  0  0  0  0  0  0  0  0  0  0  0
   13.8217   37.0450   35.5785 N   0  0  0  0  0  0  0  0  0  0  0  0
   16.1639   34.7602   33.1546 C   0  0  0  0  0  0  0  0  0  0  0  0
   15.6526   35.3506   35.4130 C   0  0  0  0  0  0  0  0  0  0  0  0
   16.3794   34.6316   34.5041 N   0  0  0  0  0  0  0  0  0  0  0  0
   15.9001   35.1933   36.8089 N   0  0  0  0  0  0  0  0  0  0  0  0
    9.0119   45.4316   33.6713 H   0  0  0  0  0  0  0  0  0  0  0  0
   11.8904   45.7661   32.9469 H   0  0  0  0  0  0  0  0  0  0  0  0
   10.7255   46.9689   33.1213 H   0  0  0  0  0  0  0  0  0  0  0  0
   10.7231   44.8812   31.1558 H   0  0  0  0  0  0  0  0  0  0  0  0
    9.3418   43.8326   31.4763 H   0  0  0  0  0  0  0  0  0  0  0  0
    7.0086   44.7169   31.5813 H   0  0  0  0  0  0  0  0  0  0  0  0
   10.3463   47.1845   30.4129 H   0  0  0  0  0  0  0  0  0  0  0  0
    5.4634   46.3080   30.5056 H   0  0  0  0  0  0  0  0  0  0  0  0
    8.8252   48.7595   29.3579 H   0  0  0  0  0  0  0  0  0  0  0  0
    5.3389   50.1924   28.3229 H   0  0  0  0  0  0  0  0  0  0  0  0
    6.9450   50.3316   26.5351 H   0  0  0  0  0  0  0  0  0  0  0  0
    6.3125   48.6580   26.6590 H   0  0  0  0  0  0  0  0  0  0  0  0
    7.9659   49.0226   27.2567 H   0  0  0  0  0  0  0  0  0  0  0  0
    8.6068   51.2720   27.9096 H   0  0  0  0  0  0  0  0  0  0  0  0
    7.1005   52.1314   32.5821 H   0  0  0  0  0  0  0  0  0  0  0  0
   10.3695   54.8463   30.4613 H   0  0  0  0  0  0  0  0  0  0  0  0
   11.4011   53.4510   31.0354 H   0  0  0  0  0  0  0  0  0  0  0  0
   11.3945   41.5459   31.4722 H   0  0  0  0  0  0  0  0  0  0  0  0
    9.8290   40.7386   31.7617 H   0  0  0  0  0  0  0  0  0  0  0  0
   11.6994   39.5069   30.3484 H   0  0  0  0  0  0  0  0  0  0  0  0
   10.1090   38.2635   32.6632 H   0  0  0  0  0  0  0  0  0  0  0  0
   13.6662   37.4515   31.2224 H   0  0  0  0  0  0  0  0  0  0  0  0
    8.9009   38.6925   30.8793 H   0  0  0  0  0  0  0  0  0  0  0  0
   11.2650   36.3083   32.5086 H   0  0  0  0  0  0  0  0  0  0  0  0
   12.1372   35.5141   30.6163 H   0  0  0  0  0  0  0  0  0  0  0  0
   12.3297   38.3530   34.7450 H   0  0  0  0  0  0  0  0  0  0  0  0
   16.7558   34.1781   32.4618 H   0  0  0  0  0  0  0  0  0  0  0  0
   16.6346   34.5300   37.1414 H   0  0  0  0  0  0  0  0  0  0  0  0
   15.3533   35.7360   37.5138 H   0  0  0  0  0  0  0  0  0  0  0  0
  1  2  2  0
  1  3  1  0
  3  4  1  0
  4  5  1  0
  6  1  1  0
  7  6  1  0
  6  8  1  0
  8  9  1  0
  9 10  2  0
 11  9  1  0
 10 12  1  0
 13 11  2  0
 12 14  2  0
 14 13  1  0
 14 15  1  0
 15 16  1  0
 16 17  1  0
 16 18  1  0
 18 19  2  0
 20 18  1  0
 19 21  1  0
 22 20  2  0
 20 23  1  0
 21 24  1  0
 21 25  2  0
 25 22  1  0
 23 26  1  0
 23 27  2  0
 24 28  1  0
 25 29  1  0
 28 29  1  0
  4 30  2  0
  4 31  1  0
 32 31  1  0
 32 33  1  0
 33 34  1  0
 33 35  1  0
 34 36  1  0
 35 37  1  0
 35 38  1  0
 38 36  1  0
 36 39  1  0
 38 40  1  0
 41 39  1  0
 42 39  1  0
 43 41  2  0
 41 44  1  0
 45 42  2  0
 46 43  1  0
 44 47  2  0
 44 45  1  0
 48 46  2  0
 48 47  1  0
 47 49  1  0
  6 50  1  1
  7 51  1  0
  7 52  1  0
  8 53  1  0
  8 54  1  0
 10 55  1  0
 11 56  1  0
 12 57  1  0
 13 58  1  0
 16 59  1  6
 17 60  1  0
 17 61  1  0
 17 62  1  0
 19 63  1  0
 22 64  1  0
 28 65  1  0
 28 66  1  0
 32 67  1  0
 32 68  1  0
 33 69  1  0
 35 70  1  0
 36 71  1  0
 37 72  1  0
 38 73  1  0
 40 74  1  0
 42 75  1  0
 46 76  1  0
 49 77  1  0
 49 78  1  0
M  CHG  3   5  -1  23   1  26  -1
M  END
>  <EmbedRMS>  (17) 
0.0828311181154

$$$$

     RDKit          3D

 78 83  0  0  0  0  0  0  0  0999 V2000
   10.2804   43.7665   33.8250 C   0  0  0  0  0  0  0  0  0  0  0  0
   11.4110   43.5918   34.3666 O   0  0  0  0  0  0  0  0  0  0  0  0
    9.3616   42.7251   33.7348 O   0  0  0  0  0  0  0  0  0  0  0  0
    9.8895   41.2269   34.2945 P   0  0  0  0  0  0  0  0  0  0  0  0
   10.3731   41.4568   35.8837 O   0  0  0  0  0  0  0  0  0  0  0  0
    9.9460   45.0736   33.2112 C   0  0  1  0  0  0  0  0  0  0  0  0
   11.0267   46.0292   33.4709 N   0  0  0  0  0  0  0  0  0  0  0  0
    9.7542   44.8541   31.6949 C   0  0  0  0  0  0  0  0  0  0  0  0
    8.7960   45.8413   31.0850 C   0  0  0  0  0  0  0  0  0  0  0  0
    7.4097   45.6005   31.1010 C   0  0  0  0  0  0  0  0  0  0  0  0
    9.2823   46.9876   30.4400 C   0  0  0  0  0  0  0  0  0  0  0  0
    6.5265   46.4990   30.4865 C   0  0  0  0  0  0  0  0  0  0  0  0
    8.3992   47.8862   29.8314 C   0  0  0  0  0  0  0  0  0  0  0  0
    7.0169   47.6557   29.8452 C   0  0  0  0  0  0  0  0  0  0  0  0
    6.1917   48.5965   29.2017 O   0  0  0  0  0  0  0  0  0  0  0  0
    4.7609   48.5871   29.1049 C   0  0  2  0  0  0  0  0  0  0  0  0
    4.1381   48.9201   30.4701 C   0  0  0  0  0  0  0  0  0  0  0  0
    4.2504   47.3231   28.4104 C   0  0  0  0  0  0  0  0  0  0  0  0
    3.2057   46.5473   28.9838 C   0  0  0  0  0  0  0  0  0  0  0  0
    4.8388   46.8817   27.1739 C   0  0  0  0  0  0  0  0  0  0  0  0
    2.8239   45.3714   28.3525 C   0  0  0  0  0  0  0  0  0  0  0  0
    4.4165   45.6668   26.5889 C   0  0  0  0  0  0  0  0  0  0  0  0
    5.8657   47.6367   26.5083 N   0  0  0  0  0  0  0  0  0  0  0  0
    1.8536   44.4667   28.7389 O   0  0  0  0  0  0  0  0  0  0  0  0
    3.4066   44.9473   27.2095 C   0  0  0  0  0  0  0  0  0  0  0  0
    6.8582   46.9806   25.8173 O   0  0  0  0  0  0  0  0  0  0  0  0
    5.7621   48.8736   26.3805 O   0  0  0  0  0  0  0  0  0  0  0  0
    1.8275   43.4065   27.7736 C   0  0  0  0  0  0  0  0  0  0  0  0
    2.8349   43.7534   26.8139 O   0  0  0  0  0  0  0  0  0  0  0  0
    8.8122   40.1844   34.2135 O   0  0  0  0  0  0  0  0  0  0  0  0
   11.2401   40.7950   33.3698 O   0  0  0  0  0  0  0  0  0  0  0  0
   10.9143   40.6914   31.9981 C   0  0  0  0  0  0  0  0  0  0  0  0
   11.5269   39.3912   31.4385 C   0  0  0  0  0  0  0  0  0  0  0  0
   12.7519   39.0911   32.0837 O   0  0  0  0  0  0  0  0  0  0  0  0
   10.6113   38.1932   31.6451 C   0  0  0  0  0  0  0  0  0  0  0  0
   12.9413   37.6838   32.0297 C   0  0  0  0  0  0  0  0  0  0  0  0
    9.6064   38.0878   30.6599 O   0  0  0  0  0  0  0  0  0  0  0  0
   11.5822   37.0197   31.6877 C   0  0  0  0  0  0  0  0  0  0  0  0
   13.4840   37.2105   33.3254 N   0  0  0  0  0  0  0  0  0  0  0  0
   11.6179   36.3072   30.4690 O   0  0  0  0  0  0  0  0  0  0  0  0
   14.4797   36.3309   33.5738 C   0  0  0  0  0  0  0  0  0  0  0  0
   13.1136   37.6269   34.5702 C   0  0  0  0  0  0  0  0  0  0  0  0
   15.2074   35.6152   32.6747 N   0  0  0  0  0  0  0  0  0  0  0  0
   14.6756   36.2298   34.9190 C   0  0  0  0  0  0  0  0  0  0  0  0
   13.8217   37.0445   35.5793 N   0  0  0  0  0  0  0  0  0  0  0  0
   16.1643   34.7603   33.1551 C   0  0  0  0  0  0  0  0  0  0  0  0
   15.6528   35.3503   35.4136 C   0  0  0  0  0  0  0  0  0  0  0  0
   16.3798   34.6316   34.5046 N   0  0  0  0  0  0  0  0  0  0  0  0
   15.9004   35.1930   36.8094 N   0  0  0  0  0  0  0  0  0  0  0  0
    8.9996   45.4382   33.6721 H   0  0  0  0  0  0  0  0  0  0  0  0
   11.0502   46.2277   34.4983 H   0  0  0  0  0  0  0  0  0  0  0  0
   10.7766   46.9369   33.0159 H   0  0  0  0  0  0  0  0  0  0  0  0
    9.3646   43.8354   31.4711 H   0  0  0  0  0  0  0  0  0  0  0  0
   10.7413   44.9078   31.1836 H   0  0  0  0  0  0  0  0  0  0  0  0
    7.0158   44.7150   31.5847 H   0  0  0  0  0  0  0  0  0  0  0  0
   10.3461   47.1874   30.4050 H   0  0  0  0  0  0  0  0  0  0  0  0
    5.4742   46.2722   30.5194 H   0  0  0  0  0  0  0  0  0  0  0  0
    8.7925   48.7664   29.3386 H   0  0  0  0  0  0  0  0  0  0  0  0
    4.4785   49.4371   28.4486 H   0  0  0  0  0  0  0  0  0  0  0  0
    4.6031   49.8451   30.8725 H   0  0  0  0  0  0  0  0  0  0  0  0
    4.2967   48.1080   31.2070 H   0  0  0  0  0  0  0  0  0  0  0  0
    3.0492   49.1101   30.3606 H   0  0  0  0  0  0  0  0  0  0  0  0
    2.7095   46.8235   29.9025 H   0  0  0  0  0  0  0  0  0  0  0  0
    4.8489   45.3053   25.6649 H   0  0  0  0  0  0  0  0  0  0  0  0
    0.8324   43.3572   27.2840 H   0  0  0  0  0  0  0  0  0  0  0  0
    2.0770   42.4394   28.2585 H   0  0  0  0  0  0  0  0  0  0  0  0
    9.8233   40.7200   31.7652 H   0  0  0  0  0  0  0  0  0  0  0  0
   11.3775   41.5548   31.4741 H   0  0  0  0  0  0  0  0  0  0  0  0
   11.7312   39.5362   30.3532 H   0  0  0  0  0  0  0  0  0  0  0  0
   10.1202   38.2696   32.6410 H   0  0  0  0  0  0  0  0  0  0  0  0
   13.6850   37.4639   31.2321 H   0  0  0  0  0  0  0  0  0  0  0  0
   10.0250   38.1792   29.7654 H   0  0  0  0  0  0  0  0  0  0  0  0
   11.2757   36.3135   32.4907 H   0  0  0  0  0  0  0  0  0  0  0  0
   11.9838   36.9111   29.7708 H   0  0  0  0  0  0  0  0  0  0  0  0
   12.3307   38.3536   34.7458 H   0  0  0  0  0  0  0  0  0  0  0  0
   16.7566   34.1787   32.4623 H   0  0  0  0  0  0  0  0  0  0  0  0
   16.6353   34.5301   37.1419 H   0  0  0  0  0  0  0  0  0  0  0  0
   15.3535   35.7355   37.5144 H   0  0  0  0  0  0  0  0  0  0  0  0
  1  2  2  0
  1  3  1  0
  3  4  1  0
  4  5  1  0
  6  1  1  0
  7  6  1  0
  6  8  1  0
  8  9  1  0
  9 10  2  0
 11  9  1  0
 10 12  1  0
 13 11  2  0
 12 14  2  0
 14 13  1  0
 14 15  1  0
 15 16  1  0
 16 17  1  0
 16 18  1  0
 18 19  2  0
 20 18  1  0
 19 21  1  0
 22 20  2  0
 20 23  1  0
 21 24  1  0
 21 25  2  0
 25 22  1  0
 23 26  1  0
 23 27  2  0
 24 28  1  0
 25 29  1  0
 28 29  1  0
  4 30  2  0
  4 31  1  0
 32 31  1  0
 32 33  1  0
 33 34  1  0
 33 35  1  0
 34 36  1  0
 35 37  1  0
 35 38  1  0
 38 36  1  0
 36 39  1  0
 38 40  1  0
 41 39  1  0
 42 39  1  0
 43 41  2  0
 41 44  1  0
 45 42  2  0
 46 43  1  0
 44 47  2  0
 44 45  1  0
 48 46  2  0
 48 47  1  0
 47 49  1  0
  6 50  1  1
  7 51  1  0
  7 52  1  0
  8 53  1  0
  8 54  1  0
 10 55  1  0
 11 56  1  0
 12 57  1  0
 13 58  1  0
 16 59  1  6
 17 60  1  0
 17 61  1  0
 17 62  1  0
 19 63  1  0
 22 64  1  0
 28 65  1  0
 28 66  1  0
 32 67  1  0
 32 68  1  0
 33 69  1  0
 35 70  1  0
 36 71  1  0
 37 72  1  0
 38 73  1  0
 40 74  1  0
 42 75  1  0
 46 76  1  0
 49 77  1  0
 49 78  1  0
M  CHG  3   5  -1  23   1  26  -1
M  END
>  <EmbedRMS>  (18) 
0.0806305343202

$$$$

     RDKit          3D

 78 83  0  0  0  0  0  0  0  0999 V2000
   10.2834   43.7662   33.8257 C   0  0  0  0  0  0  0  0  0  0  0  0
   11.4102   43.5930   34.3753 O   0  0  0  0  0  0  0  0  0  0  0  0
    9.3637   42.7255   33.7349 O   0  0  0  0  0  0  0  0  0  0  0  0
    9.8905   41.2266   34.2934 P   0  0  0  0  0  0  0  0  0  0  0  0
   10.3744   41.4556   35.8827 O   0  0  0  0  0  0  0  0  0  0  0  0
    9.9546   45.0695   33.2037 C   0  0  1  0  0  0  0  0  0  0  0  0
   11.0274   46.0321   33.4757 N   0  0  0  0  0  0  0  0  0  0  0  0
    9.7465   44.8480   31.6878 C   0  0  0  0  0  0  0  0  0  0  0  0
    8.7923   45.8408   31.0847 C   0  0  0  0  0  0  0  0  0  0  0  0
    7.4058   45.6015   31.0989 C   0  0  0  0  0  0  0  0  0  0  0  0
    9.2820   46.9875   30.4424 C   0  0  0  0  0  0  0  0  0  0  0  0
    6.5273   46.5029   30.4834 C   0  0  0  0  0  0  0  0  0  0  0  0
    8.4034   47.8898   29.8310 C   0  0  0  0  0  0  0  0  0  0  0  0
    7.0132   47.6540   29.8479 C   0  0  0  0  0  0  0  0  0  0  0  0
    6.0819   48.5164   29.2452 O   0  0  0  0  0  0  0  0  0  0  0  0
    6.3748   49.7645   28.6098 C   0  0  2  0  0  0  0  0  0  0  0  0
    6.6326   50.8293   29.6878 C   0  0  0  0  0  0  0  0  0  0  0  0
    5.2360   50.0901   27.6442 C   0  0  0  0  0  0  0  0  0  0  0  0
    4.4926   51.2992   27.7533 C   0  0  0  0  0  0  0  0  0  0  0  0
    4.8667   49.1459   26.6217 C   0  0  0  0  0  0  0  0  0  0  0  0
    3.4319   51.5128   26.8834 C   0  0  0  0  0  0  0  0  0  0  0  0
    3.7661   49.4163   25.7777 C   0  0  0  0  0  0  0  0  0  0  0  0
    5.5730   47.9062   26.4390 N   0  0  0  0  0  0  0  0  0  0  0  0
    2.5840   52.6019   26.8168 O   0  0  0  0  0  0  0  0  0  0  0  0
    3.0824   50.6110   25.9404 C   0  0  0  0  0  0  0  0  0  0  0  0
    4.8850   46.7791   26.0524 O   0  0  0  0  0  0  0  0  0  0  0  0
    6.8204   47.8808   26.4256 O   0  0  0  0  0  0  0  0  0  0  0  0
    1.6421   52.3658   25.7616 C   0  0  0  0  0  0  0  0  0  0  0  0
    1.9963   51.0827   25.2284 O   0  0  0  0  0  0  0  0  0  0  0  0
    8.8122   40.1850   34.2128 O   0  0  0  0  0  0  0  0  0  0  0  0
   11.2403   40.7946   33.3668 O   0  0  0  0  0  0  0  0  0  0  0  0
   10.9126   40.6859   31.9954 C   0  0  0  0  0  0  0  0  0  0  0  0
   11.5175   39.3787   31.4405 C   0  0  0  0  0  0  0  0  0  0  0  0
   12.7490   39.0864   32.0752 O   0  0  0  0  0  0  0  0  0  0  0  0
   10.6061   38.1868   31.6656 C   0  0  0  0  0  0  0  0  0  0  0  0
   12.9356   37.6796   32.0292 C   0  0  0  0  0  0  0  0  0  0  0  0
    9.6399   38.0903   30.6471 O   0  0  0  0  0  0  0  0  0  0  0  0
   11.5765   37.0145   31.7044 C   0  0  0  0  0  0  0  0  0  0  0  0
   13.4858   37.2125   33.3244 N   0  0  0  0  0  0  0  0  0  0  0  0
   11.6101   36.3397   30.4673 O   0  0  0  0  0  0  0  0  0  0  0  0
   14.4805   36.3319   33.5729 C   0  0  0  0  0  0  0  0  0  0  0  0
   13.1143   37.6276   34.5694 C   0  0  0  0  0  0  0  0  0  0  0  0
   15.2076   35.6153   32.6741 N   0  0  0  0  0  0  0  0  0  0  0  0
   14.6760   36.2304   34.9184 C   0  0  0  0  0  0  0  0  0  0  0  0
   13.8219   37.0449   35.5786 N   0  0  0  0  0  0  0  0  0  0  0  0
   16.1641   34.7600   33.1548 C   0  0  0  0  0  0  0  0  0  0  0  0
   15.6528   35.3505   35.4132 C   0  0  0  0  0  0  0  0  0  0  0  0
   16.3795   34.6314   34.5043 N   0  0  0  0  0  0  0  0  0  0  0  0
   15.9002   35.1931   36.8091 N   0  0  0  0  0  0  0  0  0  0  0  0
    9.0121   45.4318   33.6716 H   0  0  0  0  0  0  0  0  0  0  0  0
   11.8906   45.7658   32.9470 H   0  0  0  0  0  0  0  0  0  0  0  0
   10.7260   46.9687   33.1213 H   0  0  0  0  0  0  0  0  0  0  0  0
   10.7229   44.8814   31.1557 H   0  0  0  0  0  0  0  0  0  0  0  0
    9.3414   43.8329   31.4764 H   0  0  0  0  0  0  0  0  0  0  0  0
    7.0085   44.7164   31.5804 H   0  0  0  0  0  0  0  0  0  0  0  0
   10.3468   47.1838   30.4111 H   0  0  0  0  0  0  0  0  0  0  0  0
    5.4629   46.3052   30.5000 H   0  0  0  0  0  0  0  0  0  0  0  0
    8.8225   48.7596   29.3474 H   0  0  0  0  0  0  0  0  0  0  0  0
    7.2978   49.6833   28.0004 H   0  0  0  0  0  0  0  0  0  0  0  0
    7.4720   50.5204   30.3437 H   0  0  0  0  0  0  0  0  0  0  0  0
    6.9142   51.7959   29.2188 H   0  0  0  0  0  0  0  0  0  0  0  0
    5.7336   50.9622   30.3267 H   0  0  0  0  0  0  0  0  0  0  0  0
    4.7084   52.0583   28.4902 H   0  0  0  0  0  0  0  0  0  0  0  0
    3.4638   48.7209   25.0053 H   0  0  0  0  0  0  0  0  0  0  0  0
    0.6090   52.3403   26.1674 H   0  0  0  0  0  0  0  0  0  0  0  0
    1.7391   53.1464   24.9783 H   0  0  0  0  0  0  0  0  0  0  0  0
   11.3803   41.5437   31.4664 H   0  0  0  0  0  0  0  0  0  0  0  0
    9.8215   40.7200   31.7636 H   0  0  0  0  0  0  0  0  0  0  0  0
   11.6998   39.5041   30.3482 H   0  0  0  0  0  0  0  0  0  0  0  0
   10.1085   38.2767   32.6603 H   0  0  0  0  0  0  0  0  0  0  0  0
   13.6680   37.4520   31.2229 H   0  0  0  0  0  0  0  0  0  0  0  0
    9.0016   37.3868   30.9349 H   0  0  0  0  0  0  0  0  0  0  0  0
   11.2666   36.3062   32.5084 H   0  0  0  0  0  0  0  0  0  0  0  0
   12.1389   35.5126   30.6150 H   0  0  0  0  0  0  0  0  0  0  0  0
   12.3300   38.3529   34.7449 H   0  0  0  0  0  0  0  0  0  0  0  0
   16.7560   34.1779   32.4621 H   0  0  0  0  0  0  0  0  0  0  0  0
   15.3534   35.7359   37.5140 H   0  0  0  0  0  0  0  0  0  0  0  0
   16.6347   34.5298   37.1416 H   0  0  0  0  0  0  0  0  0  0  0  0
  1  2  2  0
  1  3  1  0
  3  4  1  0
  4  5  1  0
  6  1  1  0
  7  6  1  0
  6  8  1  0
  8  9  1  0
  9 10  2  0
 11  9  1  0
 10 12  1  0
 13 11  2  0
 12 14  2  0
 14 13  1  0
 14 15  1  0
 15 16  1  0
 16 17  1  0
 16 18  1  0
 18 19  2  0
 20 18  1  0
 19 21  1  0
 22 20  2  0
 20 23  1  0
 21 24  1  0
 21 25  2  0
 25 22  1  0
 23 26  1  0
 23 27  2  0
 24 28  1  0
 25 29  1  0
 28 29  1  0
  4 30  2  0
  4 31  1  0
 32 31  1  0
 32 33  1  0
 33 34  1  0
 33 35  1  0
 34 36  1  0
 35 37  1  0
 35 38  1  0
 38 36  1  0
 36 39  1  0
 38 40  1  0
 41 39  1  0
 42 39  1  0
 43 41  2  0
 41 44  1  0
 45 42  2  0
 46 43  1  0
 44 47  2  0
 44 45  1  0
 48 46  2  0
 48 47  1  0
 47 49  1  0
  6 50  1  1
  7 51  1  0
  7 52  1  0
  8 53  1  0
  8 54  1  0
 10 55  1  0
 11 56  1  0
 12 57  1  0
 13 58  1  0
 16 59  1  6
 17 60  1  0
 17 61  1  0
 17 62  1  0
 19 63  1  0
 22 64  1  0
 28 65  1  0
 28 66  1  0
 32 67  1  0
 32 68  1  0
 33 69  1  0
 35 70  1  0
 36 71  1  0
 37 72  1  0
 38 73  1  0
 40 74  1  0
 42 75  1  0
 46 76  1  0
 49 77  1  0
 49 78  1  0
M  CHG  3   5  -1  23   1  26  -1
M  END
>  <EmbedRMS>  (19) 
0.0823866327345

$$$$

     RDKit          3D

 78 83  0  0  0  0  0  0  0  0999 V2000
   10.2839   43.7626   33.8278 C   0  0  0  0  0  0  0  0  0  0  0  0
   11.4104   43.5863   34.3767 O   0  0  0  0  0  0  0  0  0  0  0  0
    9.3631   42.7236   33.7355 O   0  0  0  0  0  0  0  0  0  0  0  0
    9.8895   41.2249   34.2944 P   0  0  0  0  0  0  0  0  0  0  0  0
   10.3727   41.4546   35.8839 O   0  0  0  0  0  0  0  0  0  0  0  0
    9.9549   45.0699   33.2065 C   0  0  1  0  0  0  0  0  0  0  0  0
   11.0198   46.0481   33.4569 N   0  0  0  0  0  0  0  0  0  0  0  0
    9.7503   44.8507   31.6926 C   0  0  0  0  0  0  0  0  0  0  0  0
    8.7942   45.8414   31.0873 C   0  0  0  0  0  0  0  0  0  0  0  0
    7.4083   45.6007   31.0997 C   0  0  0  0  0  0  0  0  0  0  0  0
    9.2822   46.9881   30.4449 C   0  0  0  0  0  0  0  0  0  0  0  0
    6.5300   46.5020   30.4835 C   0  0  0  0  0  0  0  0  0  0  0  0
    8.4026   47.8888   29.8323 C   0  0  0  0  0  0  0  0  0  0  0  0
    7.0134   47.6546   29.8473 C   0  0  0  0  0  0  0  0  0  0  0  0
    6.0682   48.5161   29.2608 O   0  0  0  0  0  0  0  0  0  0  0  0
    6.2866   49.7736   28.6077 C   0  0  2  0  0  0  0  0  0  0  0  0
    6.9296   49.5592   27.2286 C   0  0  0  0  0  0  0  0  0  0  0  0
    6.9643   50.7960   29.5222 C   0  0  0  0  0  0  0  0  0  0  0  0
    8.2590   51.2995   29.2169 C   0  0  0  0  0  0  0  0  0  0  0  0
    6.2676   51.3352   30.6605 C   0  0  0  0  0  0  0  0  0  0  0  0
    8.8164   52.2619   30.0470 C   0  0  0  0  0  0  0  0  0  0  0  0
    6.8847   52.3248   31.4586 C   0  0  0  0  0  0  0  0  0  0  0  0
    4.9220   50.9476   30.9862 N   0  0  0  0  0  0  0  0  0  0  0  0
   10.0531   52.8699   29.9456 O   0  0  0  0  0  0  0  0  0  0  0  0
    8.1596   52.7515   31.1208 C   0  0  0  0  0  0  0  0  0  0  0  0
    4.0376   51.8918   31.4545 O   0  0  0  0  0  0  0  0  0  0  0  0
    4.6076   49.7434   31.0643 O   0  0  0  0  0  0  0  0  0  0  0  0
   10.1789   53.8001   31.0296 C   0  0  0  0  0  0  0  0  0  0  0  0
    8.9466   53.6934   31.7552 O   0  0  0  0  0  0  0  0  0  0  0  0
    8.8114   40.1834   34.2129 O   0  0  0  0  0  0  0  0  0  0  0  0
   11.2402   40.7930   33.3696 O   0  0  0  0  0  0  0  0  0  0  0  0
   10.9151   40.6903   31.9975 C   0  0  0  0  0  0  0  0  0  0  0  0
   11.5252   39.3885   31.4375 C   0  0  0  0  0  0  0  0  0  0  0  0
   12.7500   39.0873   32.0798 O   0  0  0  0  0  0  0  0  0  0  0  0
   10.6092   38.1925   31.6469 C   0  0  0  0  0  0  0  0  0  0  0  0
   12.9332   37.6792   32.0294 C   0  0  0  0  0  0  0  0  0  0  0  0
    9.6122   38.0894   30.6542 O   0  0  0  0  0  0  0  0  0  0  0  0
   11.5743   37.0144   31.7024 C   0  0  0  0  0  0  0  0  0  0  0  0
   13.4844   37.2107   33.3241 N   0  0  0  0  0  0  0  0  0  0  0  0
   11.6297   36.3238   30.4740 O   0  0  0  0  0  0  0  0  0  0  0  0
   14.4802   36.3313   33.5726 C   0  0  0  0  0  0  0  0  0  0  0  0
   13.1138   37.6266   34.5692 C   0  0  0  0  0  0  0  0  0  0  0  0
   15.2075   35.6149   32.6739 N   0  0  0  0  0  0  0  0  0  0  0  0
   14.6761   36.2303   34.9181 C   0  0  0  0  0  0  0  0  0  0  0  0
   13.8220   37.0447   35.5785 N   0  0  0  0  0  0  0  0  0  0  0  0
   16.1643   34.7600   33.1547 C   0  0  0  0  0  0  0  0  0  0  0  0
   15.6529   35.3505   35.4130 C   0  0  0  0  0  0  0  0  0  0  0  0
   16.3798   34.6315   34.5042 N   0  0  0  0  0  0  0  0  0  0  0  0
   15.9002   35.1932   36.8090 N   0  0  0  0  0  0  0  0  0  0  0  0
    9.0099   45.4348   33.6672 H   0  0  0  0  0  0  0  0  0  0  0  0
   11.9349   45.6933   33.0925 H   0  0  0  0  0  0  0  0  0  0  0  0
   11.1134   46.1994   34.4882 H   0  0  0  0  0  0  0  0  0  0  0  0
   10.7305   44.8923   31.1677 H   0  0  0  0  0  0  0  0  0  0  0  0
    9.3512   43.8341   31.4764 H   0  0  0  0  0  0  0  0  0  0  0  0
    7.0112   44.7158   31.5816 H   0  0  0  0  0  0  0  0  0  0  0  0
   10.3467   47.1862   30.4147 H   0  0  0  0  0  0  0  0  0  0  0  0
    5.4656   46.3045   30.5033 H   0  0  0  0  0  0  0  0  0  0  0  0
    8.8256   48.7498   29.3498 H   0  0  0  0  0  0  0  0  0  0  0  0
    5.2812   50.1906   28.3810 H   0  0  0  0  0  0  0  0  0  0  0  0
    7.0358   50.5301   26.6992 H   0  0  0  0  0  0  0  0  0  0  0  0
    7.9206   49.0705   27.3002 H   0  0  0  0  0  0  0  0  0  0  0  0
    6.2749   48.9044   26.6151 H   0  0  0  0  0  0  0  0  0  0  0  0
    8.8296   50.9604   28.3644 H   0  0  0  0  0  0  0  0  0  0  0  0
    6.3827   52.7474   32.3195 H   0  0  0  0  0  0  0  0  0  0  0  0
   10.3051   54.8313   30.6382 H   0  0  0  0  0  0  0  0  0  0  0  0
   11.0326   53.5181   31.6808 H   0  0  0  0  0  0  0  0  0  0  0  0
   11.3805   41.5528   31.4740 H   0  0  0  0  0  0  0  0  0  0  0  0
    9.8243   40.7216   31.7641 H   0  0  0  0  0  0  0  0  0  0  0  0
   11.7265   39.5311   30.3512 H   0  0  0  0  0  0  0  0  0  0  0  0
   10.1110   38.2746   32.6387 H   0  0  0  0  0  0  0  0  0  0  0  0
   13.6652   37.4518   31.2226 H   0  0  0  0  0  0  0  0  0  0  0  0
   10.0511   38.1143   29.7644 H   0  0  0  0  0  0  0  0  0  0  0  0
   11.2762   36.3141   32.5189 H   0  0  0  0  0  0  0  0  0  0  0  0
   10.8593   35.6977   30.4640 H   0  0  0  0  0  0  0  0  0  0  0  0
   12.3294   38.3518   34.7449 H   0  0  0  0  0  0  0  0  0  0  0  0
   16.7564   34.1780   32.4620 H   0  0  0  0  0  0  0  0  0  0  0  0
   15.3534   35.7359   37.5138 H   0  0  0  0  0  0  0  0  0  0  0  0
   16.6348   34.5300   37.1415 H   0  0  0  0  0  0  0  0  0  0  0  0
  1  2  2  0
  1  3  1  0
  3  4  1  0
  4  5  1  0
  6  1  1  0
  7  6  1  0
  6  8  1  0
  8  9  1  0
  9 10  2  0
 11  9  1  0
 10 12  1  0
 13 11  2  0
 12 14  2  0
 14 13  1  0
 14 15  1  0
 15 16  1  0
 16 17  1  0
 16 18  1  0
 18 19  2  0
 20 18  1  0
 19 21  1  0
 22 20  2  0
 20 23  1  0
 21 24  1  0
 21 25  2  0
 25 22  1  0
 23 26  1  0
 23 27  2  0
 24 28  1  0
 25 29  1  0
 28 29  1  0
  4 30  2  0
  4 31  1  0
 32 31  1  0
 32 33  1  0
 33 34  1  0
 33 35  1  0
 34 36  1  0
 35 37  1  0
 35 38  1  0
 38 36  1  0
 36 39  1  0
 38 40  1  0
 41 39  1  0
 42 39  1  0
 43 41  2  0
 41 44  1  0
 45 42  2  0
 46 43  1  0
 44 47  2  0
 44 45  1  0
 48 46  2  0
 48 47  1  0
 47 49  1  0
  6 50  1  1
  7 51  1  0
  7 52  1  0
  8 53  1  0
  8 54  1  0
 10 55  1  0
 11 56  1  0
 12 57  1  0
 13 58  1  0
 16 59  1  6
 17 60  1  0
 17 61  1  0
 17 62  1  0
 19 63  1  0
 22 64  1  0
 28 65  1  0
 28 66  1  0
 32 67  1  0
 32 68  1  0
 33 69  1  0
 35 70  1  0
 36 71  1  0
 37 72  1  0
 38 73  1  0
 40 74  1  0
 42 75  1  0
 46 76  1  0
 49 77  1  0
 49 78  1  0
M  CHG  3   5  -1  23   1  26  -1
M  END
>  <EmbedRMS>  (20) 
0.0827038006792

$$$$

     RDKit          3D

 78 83  0  0  0  0  0  0  0  0999 V2000
   10.2835   43.7661   33.8256 C   0  0  0  0  0  0  0  0  0  0  0  0
   11.4102   43.5930   34.3753 O   0  0  0  0  0  0  0  0  0  0  0  0
    9.3639   42.7253   33.7347 O   0  0  0  0  0  0  0  0  0  0  0  0
    9.8906   41.2265   34.2938 P   0  0  0  0  0  0  0  0  0  0  0  0
   10.3733   41.4559   35.8835 O   0  0  0  0  0  0  0  0  0  0  0  0
    9.9547   45.0695   33.2035 C   0  0  1  0  0  0  0  0  0  0  0  0
   11.0272   46.0323   33.4760 N   0  0  0  0  0  0  0  0  0  0  0  0
    9.7471   44.8484   31.6875 C   0  0  0  0  0  0  0  0  0  0  0  0
    8.7926   45.8408   31.0843 C   0  0  0  0  0  0  0  0  0  0  0  0
    7.4059   45.6008   31.0992 C   0  0  0  0  0  0  0  0  0  0  0  0
    9.2817   46.9877   30.4416 C   0  0  0  0  0  0  0  0  0  0  0  0
    6.5248   46.5008   30.4845 C   0  0  0  0  0  0  0  0  0  0  0  0
    8.4004   47.8880   29.8320 C   0  0  0  0  0  0  0  0  0  0  0  0
    7.0186   47.6570   29.8472 C   0  0  0  0  0  0  0  0  0  0  0  0
    6.1810   48.5968   29.2244 O   0  0  0  0  0  0  0  0  0  0  0  0
    4.7515   48.5421   29.1937 C   0  0  2  0  0  0  0  0  0  0  0  0
    4.2402   49.6193   28.2401 C   0  0  0  0  0  0  0  0  0  0  0  0
    4.1639   48.7664   30.5775 C   0  0  0  0  0  0  0  0  0  0  0  0
    4.7860   49.7023   31.4409 C   0  0  0  0  0  0  0  0  0  0  0  0
    2.9459   48.1352   30.9927 C   0  0  0  0  0  0  0  0  0  0  0  0
    4.2007   49.9592   32.6739 C   0  0  0  0  0  0  0  0  0  0  0  0
    2.3884   48.4468   32.2529 C   0  0  0  0  0  0  0  0  0  0  0  0
    2.2576   47.2035   30.1479 N   0  0  0  0  0  0  0  0  0  0  0  0
    4.6317   50.8175   33.6671 O   0  0  0  0  0  0  0  0  0  0  0  0
    3.0526   49.3583   33.0627 C   0  0  0  0  0  0  0  0  0  0  0  0
    2.8732   46.0307   29.7779 O   0  0  0  0  0  0  0  0  0  0  0  0
    1.0261   47.3164   29.9793 O   0  0  0  0  0  0  0  0  0  0  0  0
    3.6938   50.7475   34.7499 C   0  0  0  0  0  0  0  0  0  0  0  0
    2.7012   49.8048   34.3220 O   0  0  0  0  0  0  0  0  0  0  0  0
    8.8126   40.1848   34.2122 O   0  0  0  0  0  0  0  0  0  0  0  0
   11.2417   40.7943   33.3694 O   0  0  0  0  0  0  0  0  0  0  0  0
   10.9179   40.6904   31.9970 C   0  0  0  0  0  0  0  0  0  0  0  0
   11.5181   39.3814   31.4408 C   0  0  0  0  0  0  0  0  0  0  0  0
   12.7497   39.0870   32.0745 O   0  0  0  0  0  0  0  0  0  0  0  0
   10.6045   38.1891   31.6655 C   0  0  0  0  0  0  0  0  0  0  0  0
   12.9344   37.6801   32.0290 C   0  0  0  0  0  0  0  0  0  0  0  0
    9.6418   38.0758   30.6441 O   0  0  0  0  0  0  0  0  0  0  0  0
   11.5741   37.0170   31.7045 C   0  0  0  0  0  0  0  0  0  0  0  0
   13.4851   37.2126   33.3241 N   0  0  0  0  0  0  0  0  0  0  0  0
   11.6079   36.3407   30.4680 O   0  0  0  0  0  0  0  0  0  0  0  0
   14.4801   36.3321   33.5727 C   0  0  0  0  0  0  0  0  0  0  0  0
   13.1140   37.6277   34.5693 C   0  0  0  0  0  0  0  0  0  0  0  0
   15.2073   35.6155   32.6739 N   0  0  0  0  0  0  0  0  0  0  0  0
   14.6758   36.2306   34.9182 C   0  0  0  0  0  0  0  0  0  0  0  0
   13.8217   37.0451   35.5785 N   0  0  0  0  0  0  0  0  0  0  0  0
   16.1639   34.7602   33.1546 C   0  0  0  0  0  0  0  0  0  0  0  0
   15.6526   35.3506   35.4130 C   0  0  0  0  0  0  0  0  0  0  0  0
   16.3794   34.6316   34.5041 N   0  0  0  0  0  0  0  0  0  0  0  0
   15.9001   35.1933   36.8089 N   0  0  0  0  0  0  0  0  0  0  0  0
    9.0119   45.4316   33.6712 H   0  0  0  0  0  0  0  0  0  0  0  0
   10.7258   46.9688   33.1216 H   0  0  0  0  0  0  0  0  0  0  0  0
   11.8907   45.7660   32.9476 H   0  0  0  0  0  0  0  0  0  0  0  0
   10.7236   44.8824   31.1558 H   0  0  0  0  0  0  0  0  0  0  0  0
    9.3426   43.8331   31.4758 H   0  0  0  0  0  0  0  0  0  0  0  0
    7.0101   44.7156   31.5817 H   0  0  0  0  0  0  0  0  0  0  0  0
   10.3460   47.1861   30.4098 H   0  0  0  0  0  0  0  0  0  0  0  0
    5.4671   46.2863   30.5138 H   0  0  0  0  0  0  0  0  0  0  0  0
    8.7934   48.7708   29.3438 H   0  0  0  0  0  0  0  0  0  0  0  0
    4.4509   47.5638   28.7713 H   0  0  0  0  0  0  0  0  0  0  0  0
    3.1315   49.5810   28.1757 H   0  0  0  0  0  0  0  0  0  0  0  0
    4.6578   49.4511   27.2247 H   0  0  0  0  0  0  0  0  0  0  0  0
    4.5498   50.6279   28.5888 H   0  0  0  0  0  0  0  0  0  0  0  0
    5.6910   50.2236   31.1564 H   0  0  0  0  0  0  0  0  0  0  0  0
    1.4695   47.9848   32.5906 H   0  0  0  0  0  0  0  0  0  0  0  0
    3.2298   51.7414   34.9209 H   0  0  0  0  0  0  0  0  0  0  0  0
    4.1965   50.3833   35.6703 H   0  0  0  0  0  0  0  0  0  0  0  0
   11.3945   41.5459   31.4722 H   0  0  0  0  0  0  0  0  0  0  0  0
    9.8289   40.7385   31.7617 H   0  0  0  0  0  0  0  0  0  0  0  0
   11.6994   39.5069   30.3484 H   0  0  0  0  0  0  0  0  0  0  0  0
   10.1090   38.2635   32.6632 H   0  0  0  0  0  0  0  0  0  0  0  0
   13.6662   37.4515   31.2224 H   0  0  0  0  0  0  0  0  0  0  0  0
    8.9009   38.6925   30.8793 H   0  0  0  0  0  0  0  0  0  0  0  0
   11.2650   36.3083   32.5087 H   0  0  0  0  0  0  0  0  0  0  0  0
   12.1372   35.5140   30.6163 H   0  0  0  0  0  0  0  0  0  0  0  0
   12.3297   38.3530   34.7450 H   0  0  0  0  0  0  0  0  0  0  0  0
   16.7558   34.1781   32.4619 H   0  0  0  0  0  0  0  0  0  0  0  0
   15.3533   35.7360   37.5138 H   0  0  0  0  0  0  0  0  0  0  0  0
   16.6346   34.5300   37.1414 H   0  0  0  0  0  0  0  0  0  0  0  0
  1  2  2  0
  1  3  1  0
  3  4  1  0
  4  5  1  0
  6  1  1  0
  7  6  1  0
  6  8  1  0
  8  9  1  0
  9 10  2  0
 11  9  1  0
 10 12  1  0
 13 11  2  0
 12 14  2  0
 14 13  1  0
 14 15  1  0
 15 16  1  0
 16 17  1  0
 16 18  1  0
 18 19  2  0
 20 18  1  0
 19 21  1  0
 22 20  2  0
 20 23  1  0
 21 24  1  0
 21 25  2  0
 25 22  1  0
 23 26  1  0
 23 27  2  0
 24 28  1  0
 25 29  1  0
 28 29  1  0
  4 30  2  0
  4 31  1  0
 32 31  1  0
 32 33  1  0
 33 34  1  0
 33 35  1  0
 34 36  1  0
 35 37  1  0
 35 38  1  0
 38 36  1  0
 36 39  1  0
 38 40  1  0
 41 39  1  0
 42 39  1  0
 43 41  2  0
 41 44  1  0
 45 42  2  0
 46 43  1  0
 44 47  2  0
 44 45  1  0
 48 46  2  0
 48 47  1  0
 47 49  1  0
  6 50  1  1
  7 51  1  0
  7 52  1  0
  8 53  1  0
  8 54  1  0
 10 55  1  0
 11 56  1  0
 12 57  1  0
 13 58  1  0
 16 59  1  6
 17 60  1  0
 17 61  1  0
 17 62  1  0
 19 63  1  0
 22 64  1  0
 28 65  1  0
 28 66  1  0
 32 67  1  0
 32 68  1  0
 33 69  1  0
 35 70  1  0
 36 71  1  0
 37 72  1  0
 38 73  1  0
 40 74  1  0
 42 75  1  0
 46 76  1  0
 49 77  1  0
 49 78  1  0
M  CHG  3   5  -1  23   1  26  -1
M  END
>  <EmbedRMS>  (21) 
0.0828251882852

$$$$

     RDKit          3D

 78 83  0  0  0  0  0  0  0  0999 V2000
   10.2835   43.7662   33.8258 C   0  0  0  0  0  0  0  0  0  0  0  0
   11.4102   43.5930   34.3753 O   0  0  0  0  0  0  0  0  0  0  0  0
    9.3638   42.7255   33.7349 O   0  0  0  0  0  0  0  0  0  0  0  0
    9.8907   41.2265   34.2934 P   0  0  0  0  0  0  0  0  0  0  0  0
   10.3743   41.4556   35.8828 O   0  0  0  0  0  0  0  0  0  0  0  0
    9.9547   45.0695   33.2037 C   0  0  1  0  0  0  0  0  0  0  0  0
   11.0273   46.0322   33.4757 N   0  0  0  0  0  0  0  0  0  0  0  0
    9.7468   44.8479   31.6878 C   0  0  0  0  0  0  0  0  0  0  0  0
    8.7924   45.8404   31.0847 C   0  0  0  0  0  0  0  0  0  0  0  0
    7.4064   45.6013   31.0987 C   0  0  0  0  0  0  0  0  0  0  0  0
    9.2813   46.9868   30.4424 C   0  0  0  0  0  0  0  0  0  0  0  0
    6.5286   46.5033   30.4835 C   0  0  0  0  0  0  0  0  0  0  0  0
    8.4023   47.8890   29.8317 C   0  0  0  0  0  0  0  0  0  0  0  0
    7.0128   47.6555   29.8471 C   0  0  0  0  0  0  0  0  0  0  0  0
    6.0682   48.5188   29.2619 O   0  0  0  0  0  0  0  0  0  0  0  0
    6.2931   49.7636   28.5882 C   0  0  2  0  0  0  0  0  0  0  0  0
    6.9321   49.5232   27.2116 C   0  0  0  0  0  0  0  0  0  0  0  0
    6.9802   50.7944   29.4845 C   0  0  0  0  0  0  0  0  0  0  0  0
    8.2674   51.3053   29.1613 C   0  0  0  0  0  0  0  0  0  0  0  0
    6.2933   51.3337   30.6249 C   0  0  0  0  0  0  0  0  0  0  0  0
    8.8247   52.2792   29.9791 C   0  0  0  0  0  0  0  0  0  0  0  0
    6.9068   52.3347   31.4111 C   0  0  0  0  0  0  0  0  0  0  0  0
    4.9607   50.9222   30.9641 N   0  0  0  0  0  0  0  0  0  0  0  0
   10.0547   52.8975   29.8608 O   0  0  0  0  0  0  0  0  0  0  0  0
    8.1743   52.7711   31.0565 C   0  0  0  0  0  0  0  0  0  0  0  0
    4.6955   49.6042   31.2502 O   0  0  0  0  0  0  0  0  0  0  0  0
    4.1021   51.7827   31.2476 O   0  0  0  0  0  0  0  0  0  0  0  0
   10.1830   53.8370   30.9366 C   0  0  0  0  0  0  0  0  0  0  0  0
    8.9592   53.7248   31.6756 O   0  0  0  0  0  0  0  0  0  0  0  0
    8.8123   40.1851   34.2127 O   0  0  0  0  0  0  0  0  0  0  0  0
   11.2407   40.7945   33.3670 O   0  0  0  0  0  0  0  0  0  0  0  0
   10.9134   40.6866   31.9954 C   0  0  0  0  0  0  0  0  0  0  0  0
   11.5166   39.3787   31.4404 C   0  0  0  0  0  0  0  0  0  0  0  0
   12.7486   39.0849   32.0734 O   0  0  0  0  0  0  0  0  0  0  0  0
   10.6039   38.1884   31.6669 C   0  0  0  0  0  0  0  0  0  0  0  0
   12.9329   37.6776   32.0284 C   0  0  0  0  0  0  0  0  0  0  0  0
    9.6374   38.0938   30.6484 O   0  0  0  0  0  0  0  0  0  0  0  0
   11.5737   37.0141   31.7055 C   0  0  0  0  0  0  0  0  0  0  0  0
   13.4853   37.2120   33.3238 N   0  0  0  0  0  0  0  0  0  0  0  0
   11.6210   36.3379   30.4683 O   0  0  0  0  0  0  0  0  0  0  0  0
   14.4804   36.3319   33.5726 C   0  0  0  0  0  0  0  0  0  0  0  0
   13.1141   37.6275   34.5689 C   0  0  0  0  0  0  0  0  0  0  0  0
   15.2076   35.6152   32.6740 N   0  0  0  0  0  0  0  0  0  0  0  0
   14.6761   36.2306   34.9181 C   0  0  0  0  0  0  0  0  0  0  0  0
   13.8218   37.0451   35.5783 N   0  0  0  0  0  0  0  0  0  0  0  0
   16.1642   34.7600   33.1548 C   0  0  0  0  0  0  0  0  0  0  0  0
   15.6527   35.3506   35.4131 C   0  0  0  0  0  0  0  0  0  0  0  0
   16.3795   34.6315   34.5043 N   0  0  0  0  0  0  0  0  0  0  0  0
   15.9000   35.1933   36.8090 N   0  0  0  0  0  0  0  0  0  0  0  0
    9.0120   45.4317   33.6714 H   0  0  0  0  0  0  0  0  0  0  0  0
   11.8906   45.7659   32.9471 H   0  0  0  0  0  0  0  0  0  0  0  0
   10.7258   46.9688   33.1212 H   0  0  0  0  0  0  0  0  0  0  0  0
    9.3419   43.8327   31.4764 H   0  0  0  0  0  0  0  0  0  0  0  0
   10.7232   44.8815   31.1558 H   0  0  0  0  0  0  0  0  0  0  0  0
    7.0087   44.7167   31.5809 H   0  0  0  0  0  0  0  0  0  0  0  0
   10.3460   47.1834   30.4108 H   0  0  0  0  0  0  0  0  0  0  0  0
    5.4641   46.3070   30.5042 H   0  0  0  0  0  0  0  0  0  0  0  0
    8.8254   48.7514   29.3511 H   0  0  0  0  0  0  0  0  0  0  0  0
    5.2894   50.1834   28.3592 H   0  0  0  0  0  0  0  0  0  0  0  0
    7.9246   49.0384   27.2902 H   0  0  0  0  0  0  0  0  0  0  0  0
    7.0347   50.4838   26.6630 H   0  0  0  0  0  0  0  0  0  0  0  0
    6.2767   48.8553   26.6132 H   0  0  0  0  0  0  0  0  0  0  0  0
    8.8314   50.9632   28.3057 H   0  0  0  0  0  0  0  0  0  0  0  0
    6.4070   52.7569   32.2736 H   0  0  0  0  0  0  0  0  0  0  0  0
   11.0459   53.5676   31.5810 H   0  0  0  0  0  0  0  0  0  0  0  0
   10.2959   54.8663   30.5362 H   0  0  0  0  0  0  0  0  0  0  0  0
   11.3827   41.5438   31.4668 H   0  0  0  0  0  0  0  0  0  0  0  0
    9.8225   40.7224   31.7632 H   0  0  0  0  0  0  0  0  0  0  0  0
   11.6978   39.5037   30.3478 H   0  0  0  0  0  0  0  0  0  0  0  0
   10.1084   38.2786   32.6627 H   0  0  0  0  0  0  0  0  0  0  0  0
   13.6638   37.4472   31.2214 H   0  0  0  0  0  0  0  0  0  0  0  0
    8.9763   37.4191   30.9532 H   0  0  0  0  0  0  0  0  0  0  0  0
   11.2821   36.3054   32.5172 H   0  0  0  0  0  0  0  0  0  0  0  0
   10.8658   35.6935   30.4652 H   0  0  0  0  0  0  0  0  0  0  0  0
   12.3294   38.3523   34.7444 H   0  0  0  0  0  0  0  0  0  0  0  0
   16.7561   34.1778   32.4621 H   0  0  0  0  0  0  0  0  0  0  0  0
   16.6345   34.5300   37.1416 H   0  0  0  0  0  0  0  0  0  0  0  0
   15.3533   35.7361   37.5138 H   0  0  0  0  0  0  0  0  0  0  0  0
  1  2  2  0
  1  3  1  0
  3  4  1  0
  4  5  1  0
  6  1  1  0
  7  6  1  0
  6  8  1  0
  8  9  1  0
  9 10  2  0
 11  9  1  0
 10 12  1  0
 13 11  2  0
 12 14  2  0
 14 13  1  0
 14 15  1  0
 15 16  1  0
 16 17  1  0
 16 18  1  0
 18 19  2  0
 20 18  1  0
 19 21  1  0
 22 20  2  0
 20 23  1  0
 21 24  1  0
 21 25  2  0
 25 22  1  0
 23 26  1  0
 23 27  2  0
 24 28  1  0
 25 29  1  0
 28 29  1  0
  4 30  2  0
  4 31  1  0
 32 31  1  0
 32 33  1  0
 33 34  1  0
 33 35  1  0
 34 36  1  0
 35 37  1  0
 35 38  1  0
 38 36  1  0
 36 39  1  0
 38 40  1  0
 41 39  1  0
 42 39  1  0
 43 41  2  0
 41 44  1  0
 45 42  2  0
 46 43  1  0
 44 47  2  0
 44 45  1  0
 48 46  2  0
 48 47  1  0
 47 49  1  0
  6 50  1  1
  7 51  1  0
  7 52  1  0
  8 53  1  0
  8 54  1  0
 10 55  1  0
 11 56  1  0
 12 57  1  0
 13 58  1  0
 16 59  1  6
 17 60  1  0
 17 61  1  0
 17 62  1  0
 19 63  1  0
 22 64  1  0
 28 65  1  0
 28 66  1  0
 32 67  1  0
 32 68  1  0
 33 69  1  0
 35 70  1  0
 36 71  1  0
 37 72  1  0
 38 73  1  0
 40 74  1  0
 42 75  1  0
 46 76  1  0
 49 77  1  0
 49 78  1  0
M  CHG  3   5  -1  23   1  26  -1
M  END
>  <EmbedRMS>  (22) 
0.082549387781

$$$$

     RDKit          3D

 78 83  0  0  0  0  0  0  0  0999 V2000
   10.2801   43.7667   33.8250 C   0  0  0  0  0  0  0  0  0  0  0  0
   11.4108   43.5921   34.3665 O   0  0  0  0  0  0  0  0  0  0  0  0
    9.3615   42.7252   33.7348 O   0  0  0  0  0  0  0  0  0  0  0  0
    9.8895   41.2270   34.2945 P   0  0  0  0  0  0  0  0  0  0  0  0
   10.3731   41.4569   35.8837 O   0  0  0  0  0  0  0  0  0  0  0  0
    9.9454   45.0740   33.2113 C   0  0  1  0  0  0  0  0  0  0  0  0
   11.0261   46.0296   33.4709 N   0  0  0  0  0  0  0  0  0  0  0  0
    9.7533   44.8546   31.6950 C   0  0  0  0  0  0  0  0  0  0  0  0
    8.7952   45.8418   31.0849 C   0  0  0  0  0  0  0  0  0  0  0  0
    7.4074   45.5993   31.0999 C   0  0  0  0  0  0  0  0  0  0  0  0
    9.2832   46.9882   30.4370 C   0  0  0  0  0  0  0  0  0  0  0  0
    6.5268   46.4986   30.4828 C   0  0  0  0  0  0  0  0  0  0  0  0
    8.4007   47.8876   29.8269 C   0  0  0  0  0  0  0  0  0  0  0  0
    7.0200   47.6526   29.8575 C   0  0  0  0  0  0  0  0  0  0  0  0
    6.1371   48.5540   29.2559 O   0  0  0  0  0  0  0  0  0  0  0  0
    5.5457   49.6604   29.9456 C   0  0  2  0  0  0  0  0  0  0  0  0
    6.5841   50.7539   30.2346 C   0  0  0  0  0  0  0  0  0  0  0  0
    4.7849   49.1995   31.1853 C   0  0  0  0  0  0  0  0  0  0  0  0
    5.4812   48.9915   32.4048 C   0  0  0  0  0  0  0  0  0  0  0  0
    3.3702   48.9605   31.1443 C   0  0  0  0  0  0  0  0  0  0  0  0
    4.7584   48.6155   33.5285 C   0  0  0  0  0  0  0  0  0  0  0  0
    2.6851   48.5997   32.3275 C   0  0  0  0  0  0  0  0  0  0  0  0
    2.6306   49.0358   29.9150 N   0  0  0  0  0  0  0  0  0  0  0  0
    5.2246   48.3682   34.8054 O   0  0  0  0  0  0  0  0  0  0  0  0
    3.4190   48.4357   33.4937 C   0  0  0  0  0  0  0  0  0  0  0  0
    3.1083   48.4146   28.7841 O   0  0  0  0  0  0  0  0  0  0  0  0
    1.4580   49.4641   29.9170 O   0  0  0  0  0  0  0  0  0  0  0  0
    4.1028   48.0113   35.6243 C   0  0  0  0  0  0  0  0  0  0  0  0
    2.9696   48.0667   34.7471 O   0  0  0  0  0  0  0  0  0  0  0  0
    8.8122   40.1845   34.2135 O   0  0  0  0  0  0  0  0  0  0  0  0
   11.2401   40.7950   33.3698 O   0  0  0  0  0  0  0  0  0  0  0  0
   10.9143   40.6914   31.9981 C   0  0  0  0  0  0  0  0  0  0  0  0
   11.5269   39.3912   31.4385 C   0  0  0  0  0  0  0  0  0  0  0  0
   12.7519   39.0911   32.0837 O   0  0  0  0  0  0  0  0  0  0  0  0
   10.6113   38.1932   31.6451 C   0  0  0  0  0  0  0  0  0  0  0  0
   12.9413   37.6838   32.0297 C   0  0  0  0  0  0  0  0  0  0  0  0
    9.6064   38.0877   30.6599 O   0  0  0  0  0  0  0  0  0  0  0  0
   11.5822   37.0197   31.6877 C   0  0  0  0  0  0  0  0  0  0  0  0
   13.4840   37.2105   33.3254 N   0  0  0  0  0  0  0  0  0  0  0  0
   11.6179   36.3072   30.4690 O   0  0  0  0  0  0  0  0  0  0  0  0
   14.4797   36.3309   33.5738 C   0  0  0  0  0  0  0  0  0  0  0  0
   13.1136   37.6269   34.5702 C   0  0  0  0  0  0  0  0  0  0  0  0
   15.2074   35.6152   32.6747 N   0  0  0  0  0  0  0  0  0  0  0  0
   14.6756   36.2298   34.9190 C   0  0  0  0  0  0  0  0  0  0  0  0
   13.8217   37.0445   35.5793 N   0  0  0  0  0  0  0  0  0  0  0  0
   16.1643   34.7603   33.1551 C   0  0  0  0  0  0  0  0  0  0  0  0
   15.6528   35.3503   35.4136 C   0  0  0  0  0  0  0  0  0  0  0  0
   16.3798   34.6316   34.5046 N   0  0  0  0  0  0  0  0  0  0  0  0
   15.9004   35.1930   36.8094 N   0  0  0  0  0  0  0  0  0  0  0  0
    8.9989   45.4385   33.6723 H   0  0  0  0  0  0  0  0  0  0  0  0
   10.7756   46.9372   33.0159 H   0  0  0  0  0  0  0  0  0  0  0  0
   11.0495   46.2282   34.4982 H   0  0  0  0  0  0  0  0  0  0  0  0
    9.3636   43.8359   31.4713 H   0  0  0  0  0  0  0  0  0  0  0  0
   10.7405   44.9081   31.1837 H   0  0  0  0  0  0  0  0  0  0  0  0
    7.0120   44.7146   31.5836 H   0  0  0  0  0  0  0  0  0  0  0  0
   10.3473   47.1861   30.4001 H   0  0  0  0  0  0  0  0  0  0  0  0
    5.4618   46.3046   30.5000 H   0  0  0  0  0  0  0  0  0  0  0  0
    8.7899   48.7670   29.3300 H   0  0  0  0  0  0  0  0  0  0  0  0
    4.8307   50.1381   29.2447 H   0  0  0  0  0  0  0  0  0  0  0  0
    6.1091   51.5964   30.7811 H   0  0  0  0  0  0  0  0  0  0  0  0
    7.4345   50.3693   30.8322 H   0  0  0  0  0  0  0  0  0  0  0  0
    6.9904   51.1420   29.2765 H   0  0  0  0  0  0  0  0  0  0  0  0
    6.5523   49.1116   32.4839 H   0  0  0  0  0  0  0  0  0  0  0  0
    1.6182   48.4168   32.3280 H   0  0  0  0  0  0  0  0  0  0  0  0
    4.2295   46.9826   36.0220 H   0  0  0  0  0  0  0  0  0  0  0  0
    3.9832   48.7420   36.4515 H   0  0  0  0  0  0  0  0  0  0  0  0
    9.8233   40.7200   31.7651 H   0  0  0  0  0  0  0  0  0  0  0  0
   11.3775   41.5548   31.4741 H   0  0  0  0  0  0  0  0  0  0  0  0
   11.7312   39.5362   30.3532 H   0  0  0  0  0  0  0  0  0  0  0  0
   10.1202   38.2696   32.6410 H   0  0  0  0  0  0  0  0  0  0  0  0
   13.6850   37.4639   31.2321 H   0  0  0  0  0  0  0  0  0  0  0  0
   10.0251   38.1792   29.7654 H   0  0  0  0  0  0  0  0  0  0  0  0
   11.2757   36.3135   32.4907 H   0  0  0  0  0  0  0  0  0  0  0  0
   11.9839   36.9111   29.7708 H   0  0  0  0  0  0  0  0  0  0  0  0
   12.3307   38.3536   34.7458 H   0  0  0  0  0  0  0  0  0  0  0  0
   16.7566   34.1787   32.4623 H   0  0  0  0  0  0  0  0  0  0  0  0
   16.6353   34.5301   37.1419 H   0  0  0  0  0  0  0  0  0  0  0  0
   15.3535   35.7355   37.5144 H   0  0  0  0  0  0  0  0  0  0  0  0
  1  2  2  0
  1  3  1  0
  3  4  1  0
  4  5  1  0
  6  1  1  0
  7  6  1  0
  6  8  1  0
  8  9  1  0
  9 10  2  0
 11  9  1  0
 10 12  1  0
 13 11  2  0
 12 14  2  0
 14 13  1  0
 14 15  1  0
 15 16  1  0
 16 17  1  0
 16 18  1  0
 18 19  2  0
 20 18  1  0
 19 21  1  0
 22 20  2  0
 20 23  1  0
 21 24  1  0
 21 25  2  0
 25 22  1  0
 23 26  1  0
 23 27  2  0
 24 28  1  0
 25 29  1  0
 28 29  1  0
  4 30  2  0
  4 31  1  0
 32 31  1  0
 32 33  1  0
 33 34  1  0
 33 35  1  0
 34 36  1  0
 35 37  1  0
 35 38  1  0
 38 36  1  0
 36 39  1  0
 38 40  1  0
 41 39  1  0
 42 39  1  0
 43 41  2  0
 41 44  1  0
 45 42  2  0
 46 43  1  0
 44 47  2  0
 44 45  1  0
 48 46  2  0
 48 47  1  0
 47 49  1  0
  6 50  1  1
  7 51  1  0
  7 52  1  0
  8 53  1  0
  8 54  1  0
 10 55  1  0
 11 56  1  0
 12 57  1  0
 13 58  1  0
 16 59  1  6
 17 60  1  0
 17 61  1  0
 17 62  1  0
 19 63  1  0
 22 64  1  0
 28 65  1  0
 28 66  1  0
 32 67  1  0
 32 68  1  0
 33 69  1  0
 35 70  1  0
 36 71  1  0
 37 72  1  0
 38 73  1  0
 40 74  1  0
 42 75  1  0
 46 76  1  0
 49 77  1  0
 49 78  1  0
M  CHG  3   5  -1  23   1  26  -1
M  END
>  <EmbedRMS>  (23) 
0.080763299165

$$$$

     RDKit          3D

 78 83  0  0  0  0  0  0  0  0999 V2000
   10.2804   43.7664   33.8250 C   0  0  0  0  0  0  0  0  0  0  0  0
   11.4111   43.5918   34.3666 O   0  0  0  0  0  0  0  0  0  0  0  0
    9.3619   42.7249   33.7344 O   0  0  0  0  0  0  0  0  0  0  0  0
    9.8899   41.2267   34.2940 P   0  0  0  0  0  0  0  0  0  0  0  0
   10.3734   41.4567   35.8833 O   0  0  0  0  0  0  0  0  0  0  0  0
    9.9459   45.0737   33.2113 C   0  0  1  0  0  0  0  0  0  0  0  0
   11.0265   46.0293   33.4710 N   0  0  0  0  0  0  0  0  0  0  0  0
    9.7540   44.8543   31.6950 C   0  0  0  0  0  0  0  0  0  0  0  0
    8.7958   45.8413   31.0850 C   0  0  0  0  0  0  0  0  0  0  0  0
    7.4091   45.5998   31.1006 C   0  0  0  0  0  0  0  0  0  0  0  0
    9.2825   46.9874   30.4390 C   0  0  0  0  0  0  0  0  0  0  0  0
    6.5262   46.4984   30.4855 C   0  0  0  0  0  0  0  0  0  0  0  0
    8.3997   47.8865   29.8300 C   0  0  0  0  0  0  0  0  0  0  0  0
    7.0178   47.6563   29.8488 C   0  0  0  0  0  0  0  0  0  0  0  0
    6.1807   48.5970   29.2263 O   0  0  0  0  0  0  0  0  0  0  0  0
    4.7529   48.5828   29.2498 C   0  0  2  0  0  0  0  0  0  0  0  0
    4.2168   49.5816   28.2238 C   0  0  0  0  0  0  0  0  0  0  0  0
    4.2172   48.8887   30.6412 C   0  0  0  0  0  0  0  0  0  0  0  0
    3.3143   47.9656   31.2239 C   0  0  0  0  0  0  0  0  0  0  0  0
    4.5426   50.0903   31.3565 C   0  0  0  0  0  0  0  0  0  0  0  0
    2.7784   48.2551   32.4720 C   0  0  0  0  0  0  0  0  0  0  0  0
    3.9553   50.3380   32.6170 C   0  0  0  0  0  0  0  0  0  0  0  0
    5.4401   51.0695   30.8200 N   0  0  0  0  0  0  0  0  0  0  0  0
    1.8914   47.5056   33.2206 O   0  0  0  0  0  0  0  0  0  0  0  0
    3.0843   49.3916   33.1385 C   0  0  0  0  0  0  0  0  0  0  0  0
    6.7729   50.7672   30.6738 O   0  0  0  0  0  0  0  0  0  0  0  0
    5.0855   52.2651   30.7693 O   0  0  0  0  0  0  0  0  0  0  0  0
    1.6259   48.2186   34.4363 C   0  0  0  0  0  0  0  0  0  0  0  0
    2.4073   49.4176   34.3426 O   0  0  0  0  0  0  0  0  0  0  0  0
    8.8123   40.1844   34.2133 O   0  0  0  0  0  0  0  0  0  0  0  0
   11.2405   40.7942   33.3692 O   0  0  0  0  0  0  0  0  0  0  0  0
   10.9150   40.6905   31.9972 C   0  0  0  0  0  0  0  0  0  0  0  0
   11.5252   39.3886   31.4375 C   0  0  0  0  0  0  0  0  0  0  0  0
   12.7499   39.0874   32.0799 O   0  0  0  0  0  0  0  0  0  0  0  0
   10.6092   38.1926   31.6469 C   0  0  0  0  0  0  0  0  0  0  0  0
   12.9332   37.6793   32.0294 C   0  0  0  0  0  0  0  0  0  0  0  0
    9.6122   38.0894   30.6542 O   0  0  0  0  0  0  0  0  0  0  0  0
   11.5743   37.0145   31.7024 C   0  0  0  0  0  0  0  0  0  0  0  0
   13.4844   37.2108   33.3241 N   0  0  0  0  0  0  0  0  0  0  0  0
   11.6297   36.3239   30.4740 O   0  0  0  0  0  0  0  0  0  0  0  0
   14.4802   36.3313   33.5727 C   0  0  0  0  0  0  0  0  0  0  0  0
   13.1138   37.6266   34.5693 C   0  0  0  0  0  0  0  0  0  0  0  0
   15.2075   35.6149   32.6739 N   0  0  0  0  0  0  0  0  0  0  0  0
   14.6761   36.2303   34.9182 C   0  0  0  0  0  0  0  0  0  0  0  0
   13.8220   37.0447   35.5785 N   0  0  0  0  0  0  0  0  0  0  0  0
   16.1643   34.7600   33.1547 C   0  0  0  0  0  0  0  0  0  0  0  0
   15.6529   35.3505   35.4130 C   0  0  0  0  0  0  0  0  0  0  0  0
   16.3798   34.6315   34.5042 N   0  0  0  0  0  0  0  0  0  0  0  0
   15.9003   35.1932   36.8090 N   0  0  0  0  0  0  0  0  0  0  0  0
    8.9994   45.4381   33.6722 H   0  0  0  0  0  0  0  0  0  0  0  0
   10.7762   46.9370   33.0160 H   0  0  0  0  0  0  0  0  0  0  0  0
   11.0500   46.2278   34.4984 H   0  0  0  0  0  0  0  0  0  0  0  0
   10.7412   44.9080   31.1837 H   0  0  0  0  0  0  0  0  0  0  0  0
    9.3646   43.8355   31.4711 H   0  0  0  0  0  0  0  0  0  0  0  0
    7.0152   44.7137   31.5830 H   0  0  0  0  0  0  0  0  0  0  0  0
   10.3464   47.1871   30.4042 H   0  0  0  0  0  0  0  0  0  0  0  0
    5.4704   46.2757   30.5087 H   0  0  0  0  0  0  0  0  0  0  0  0
    8.7918   48.7688   29.3401 H   0  0  0  0  0  0  0  0  0  0  0  0
    4.4060   47.5815   28.9102 H   0  0  0  0  0  0  0  0  0  0  0  0
    4.6051   50.6029   28.4117 H   0  0  0  0  0  0  0  0  0  0  0  0
    3.1063   49.6034   28.2532 H   0  0  0  0  0  0  0  0  0  0  0  0
    4.5342   49.2744   27.2047 H   0  0  0  0  0  0  0  0  0  0  0  0
    3.0289   47.0525   30.7172 H   0  0  0  0  0  0  0  0  0  0  0  0
    4.1817   51.2379   33.1746 H   0  0  0  0  0  0  0  0  0  0  0  0
    0.5466   48.4691   34.5067 H   0  0  0  0  0  0  0  0  0  0  0  0
    1.9492   47.6181   35.3122 H   0  0  0  0  0  0  0  0  0  0  0  0
   11.3800   41.5528   31.4730 H   0  0  0  0  0  0  0  0  0  0  0  0
    9.8242   40.7215   31.7641 H   0  0  0  0  0  0  0  0  0  0  0  0
   11.7266   39.5310   30.3513 H   0  0  0  0  0  0  0  0  0  0  0  0
   10.1110   38.2747   32.6387 H   0  0  0  0  0  0  0  0  0  0  0  0
   13.6652   37.4520   31.2226 H   0  0  0  0  0  0  0  0  0  0  0  0
   10.0511   38.1144   29.7645 H   0  0  0  0  0  0  0  0  0  0  0  0
   11.2762   36.3141   32.5189 H   0  0  0  0  0  0  0  0  0  0  0  0
   10.8593   35.6977   30.4640 H   0  0  0  0  0  0  0  0  0  0  0  0
   12.3294   38.3518   34.7450 H   0  0  0  0  0  0  0  0  0  0  0  0
   16.7563   34.1780   32.4620 H   0  0  0  0  0  0  0  0  0  0  0  0
   16.6349   34.5300   37.1416 H   0  0  0  0  0  0  0  0  0  0  0  0
   15.3534   35.7359   37.5138 H   0  0  0  0  0  0  0  0  0  0  0  0
  1  2  2  0
  1  3  1  0
  3  4  1  0
  4  5  1  0
  6  1  1  0
  7  6  1  0
  6  8  1  0
  8  9  1  0
  9 10  2  0
 11  9  1  0
 10 12  1  0
 13 11  2  0
 12 14  2  0
 14 13  1  0
 14 15  1  0
 15 16  1  0
 16 17  1  0
 16 18  1  0
 18 19  2  0
 20 18  1  0
 19 21  1  0
 22 20  2  0
 20 23  1  0
 21 24  1  0
 21 25  2  0
 25 22  1  0
 23 26  1  0
 23 27  2  0
 24 28  1  0
 25 29  1  0
 28 29  1  0
  4 30  2  0
  4 31  1  0
 32 31  1  0
 32 33  1  0
 33 34  1  0
 33 35  1  0
 34 36  1  0
 35 37  1  0
 35 38  1  0
 38 36  1  0
 36 39  1  0
 38 40  1  0
 41 39  1  0
 42 39  1  0
 43 41  2  0
 41 44  1  0
 45 42  2  0
 46 43  1  0
 44 47  2  0
 44 45  1  0
 48 46  2  0
 48 47  1  0
 47 49  1  0
  6 50  1  1
  7 51  1  0
  7 52  1  0
  8 53  1  0
  8 54  1  0
 10 55  1  0
 11 56  1  0
 12 57  1  0
 13 58  1  0
 16 59  1  6
 17 60  1  0
 17 61  1  0
 17 62  1  0
 19 63  1  0
 22 64  1  0
 28 65  1  0
 28 66  1  0
 32 67  1  0
 32 68  1  0
 33 69  1  0
 35 70  1  0
 36 71  1  0
 37 72  1  0
 38 73  1  0
 40 74  1  0
 42 75  1  0
 46 76  1  0
 49 77  1  0
 49 78  1  0
M  CHG  3   5  -1  23   1  26  -1
M  END
>  <EmbedRMS>  (24) 
0.0816299934453

$$$$

     RDKit          3D

 78 83  0  0  0  0  0  0  0  0999 V2000
   10.2804   43.7664   33.8251 C   0  0  0  0  0  0  0  0  0  0  0  0
   11.4111   43.5918   34.3667 O   0  0  0  0  0  0  0  0  0  0  0  0
    9.3618   42.7249   33.7346 O   0  0  0  0  0  0  0  0  0  0  0  0
    9.8899   41.2266   34.2940 P   0  0  0  0  0  0  0  0  0  0  0  0
   10.3735   41.4566   35.8832 O   0  0  0  0  0  0  0  0  0  0  0  0
    9.9459   45.0736   33.2113 C   0  0  1  0  0  0  0  0  0  0  0  0
   11.0268   46.0291   33.4707 N   0  0  0  0  0  0  0  0  0  0  0  0
    9.7535   44.8539   31.6951 C   0  0  0  0  0  0  0  0  0  0  0  0
    8.7955   45.8412   31.0852 C   0  0  0  0  0  0  0  0  0  0  0  0
    7.4089   45.6004   31.1006 C   0  0  0  0  0  0  0  0  0  0  0  0
    9.2827   46.9875   30.4398 C   0  0  0  0  0  0  0  0  0  0  0  0
    6.5286   46.5005   30.4846 C   0  0  0  0  0  0  0  0  0  0  0  0
    8.4026   47.8889   29.8294 C   0  0  0  0  0  0  0  0  0  0  0  0
    7.0127   47.6523   29.8489 C   0  0  0  0  0  0  0  0  0  0  0  0
    6.0806   48.5157   29.2492 O   0  0  0  0  0  0  0  0  0  0  0  0
    6.3686   49.7867   28.6577 C   0  0  2  0  0  0  0  0  0  0  0  0
    6.6444   50.8267   29.7496 C   0  0  0  0  0  0  0  0  0  0  0  0
    5.1811   50.2246   27.8216 C   0  0  0  0  0  0  0  0  0  0  0  0
    3.8802   50.0778   28.3643 C   0  0  0  0  0  0  0  0  0  0  0  0
    5.3307   50.7411   26.4913 C   0  0  0  0  0  0  0  0  0  0  0  0
    2.7886   50.4063   27.5714 C   0  0  0  0  0  0  0  0  0  0  0  0
    4.1806   51.0429   25.7257 C   0  0  0  0  0  0  0  0  0  0  0  0
    6.6250   50.9893   25.9200 N   0  0  0  0  0  0  0  0  0  0  0  0
    1.4453   50.3329   27.8861 O   0  0  0  0  0  0  0  0  0  0  0  0
    2.9322   50.8631   26.3063 C   0  0  0  0  0  0  0  0  0  0  0  0
    7.5718   51.6870   26.6338 O   0  0  0  0  0  0  0  0  0  0  0  0
    6.8205   50.7807   24.7048 O   0  0  0  0  0  0  0  0  0  0  0  0
    0.6987   50.7734   26.7436 C   0  0  0  0  0  0  0  0  0  0  0  0
    1.6870   51.1028   25.7578 O   0  0  0  0  0  0  0  0  0  0  0  0
    8.8123   40.1844   34.2134 O   0  0  0  0  0  0  0  0  0  0  0  0
   11.2402   40.7944   33.3689 O   0  0  0  0  0  0  0  0  0  0  0  0
   10.9142   40.6898   31.9971 C   0  0  0  0  0  0  0  0  0  0  0  0
   11.5260   39.3884   31.4376 C   0  0  0  0  0  0  0  0  0  0  0  0
   12.7504   39.0888   32.0816 O   0  0  0  0  0  0  0  0  0  0  0  0
   10.6114   38.1909   31.6460 C   0  0  0  0  0  0  0  0  0  0  0  0
   12.9357   37.6812   32.0303 C   0  0  0  0  0  0  0  0  0  0  0  0
    9.6145   38.0858   30.6534 O   0  0  0  0  0  0  0  0  0  0  0  0
   11.5769   37.0148   31.7012 C   0  0  0  0  0  0  0  0  0  0  0  0
   13.4849   37.2112   33.3247 N   0  0  0  0  0  0  0  0  0  0  0  0
   11.6193   36.3261   30.4724 O   0  0  0  0  0  0  0  0  0  0  0  0
   14.4802   36.3313   33.5730 C   0  0  0  0  0  0  0  0  0  0  0  0
   13.1141   37.6268   34.5698 C   0  0  0  0  0  0  0  0  0  0  0  0
   15.2074   35.6151   32.6741 N   0  0  0  0  0  0  0  0  0  0  0  0
   14.6761   36.2300   34.9184 C   0  0  0  0  0  0  0  0  0  0  0  0
   13.8220   37.0445   35.5789 N   0  0  0  0  0  0  0  0  0  0  0  0
   16.1642   34.7600   33.1547 C   0  0  0  0  0  0  0  0  0  0  0  0
   15.6529   35.3503   35.4131 C   0  0  0  0  0  0  0  0  0  0  0  0
   16.3797   34.6314   34.5042 N   0  0  0  0  0  0  0  0  0  0  0  0
   15.9004   35.1930   36.8090 N   0  0  0  0  0  0  0  0  0  0  0  0
    8.9997   45.4382   33.6725 H   0  0  0  0  0  0  0  0  0  0  0  0
   11.0506   46.2277   34.4980 H   0  0  0  0  0  0  0  0  0  0  0  0
   10.7765   46.9368   33.0157 H   0  0  0  0  0  0  0  0  0  0  0  0
   10.7406   44.9070   31.1836 H   0  0  0  0  0  0  0  0  0  0  0  0
    9.3635   43.8353   31.4716 H   0  0  0  0  0  0  0  0  0  0  0  0
    7.0133   44.7158   31.5843 H   0  0  0  0  0  0  0  0  0  0  0  0
   10.3471   47.1849   30.4052 H   0  0  0  0  0  0  0  0  0  0  0  0
    5.4644   46.3024   30.5035 H   0  0  0  0  0  0  0  0  0  0  0  0
    8.8198   48.7574   29.3414 H   0  0  0  0  0  0  0  0  0  0  0  0
    7.2614   49.6800   28.0109 H   0  0  0  0  0  0  0  0  0  0  0  0
    6.8203   51.8248   29.2952 H   0  0  0  0  0  0  0  0  0  0  0  0
    7.5448   50.5499   30.3346 H   0  0  0  0  0  0  0  0  0  0  0  0
    5.7826   50.8962   30.4471 H   0  0  0  0  0  0  0  0  0  0  0  0
    3.7242   49.7016   29.3676 H   0  0  0  0  0  0  0  0  0  0  0  0
    4.2598   51.4314   24.7185 H   0  0  0  0  0  0  0  0  0  0  0  0
    0.0455   49.9558   26.3731 H   0  0  0  0  0  0  0  0  0  0  0  0
    0.0989   51.6718   26.9998 H   0  0  0  0  0  0  0  0  0  0  0  0
   11.3778   41.5525   31.4724 H   0  0  0  0  0  0  0  0  0  0  0  0
    9.8232   40.7191   31.7644 H   0  0  0  0  0  0  0  0  0  0  0  0
   11.7284   39.5311   30.3515 H   0  0  0  0  0  0  0  0  0  0  0  0
   10.1127   38.2734   32.6377 H   0  0  0  0  0  0  0  0  0  0  0  0
   13.6692   37.4566   31.2242 H   0  0  0  0  0  0  0  0  0  0  0  0
   10.0534   38.1117   29.7636 H   0  0  0  0  0  0  0  0  0  0  0  0
   11.2607   36.3148   32.5102 H   0  0  0  0  0  0  0  0  0  0  0  0
   12.1496   35.5023   30.6324 H   0  0  0  0  0  0  0  0  0  0  0  0
   12.3301   38.3524   34.7455 H   0  0  0  0  0  0  0  0  0  0  0  0
   16.7562   34.1781   32.4619 H   0  0  0  0  0  0  0  0  0  0  0  0
   16.6351   34.5298   37.1415 H   0  0  0  0  0  0  0  0  0  0  0  0
   15.3536   35.7356   37.5140 H   0  0  0  0  0  0  0  0  0  0  0  0
  1  2  2  0
  1  3  1  0
  3  4  1  0
  4  5  1  0
  6  1  1  0
  7  6  1  0
  6  8  1  0
  8  9  1  0
  9 10  2  0
 11  9  1  0
 10 12  1  0
 13 11  2  0
 12 14  2  0
 14 13  1  0
 14 15  1  0
 15 16  1  0
 16 17  1  0
 16 18  1  0
 18 19  2  0
 20 18  1  0
 19 21  1  0
 22 20  2  0
 20 23  1  0
 21 24  1  0
 21 25  2  0
 25 22  1  0
 23 26  1  0
 23 27  2  0
 24 28  1  0
 25 29  1  0
 28 29  1  0
  4 30  2  0
  4 31  1  0
 32 31  1  0
 32 33  1  0
 33 34  1  0
 33 35  1  0
 34 36  1  0
 35 37  1  0
 35 38  1  0
 38 36  1  0
 36 39  1  0
 38 40  1  0
 41 39  1  0
 42 39  1  0
 43 41  2  0
 41 44  1  0
 45 42  2  0
 46 43  1  0
 44 47  2  0
 44 45  1  0
 48 46  2  0
 48 47  1  0
 47 49  1  0
  6 50  1  1
  7 51  1  0
  7 52  1  0
  8 53  1  0
  8 54  1  0
 10 55  1  0
 11 56  1  0
 12 57  1  0
 13 58  1  0
 16 59  1  6
 17 60  1  0
 17 61  1  0
 17 62  1  0
 19 63  1  0
 22 64  1  0
 28 65  1  0
 28 66  1  0
 32 67  1  0
 32 68  1  0
 33 69  1  0
 35 70  1  0
 36 71  1  0
 37 72  1  0
 38 73  1  0
 40 74  1  0
 42 75  1  0
 46 76  1  0
 49 77  1  0
 49 78  1  0
M  CHG  3   5  -1  23   1  26  -1
M  END
>  <EmbedRMS>  (25) 
0.0814329771438

$$$$

     RDKit          3D

 78 83  0  0  0  0  0  0  0  0999 V2000
   10.2804   43.7664   33.8250 C   0  0  0  0  0  0  0  0  0  0  0  0
   11.4110   43.5919   34.3666 O   0  0  0  0  0  0  0  0  0  0  0  0
    9.3619   42.7249   33.7344 O   0  0  0  0  0  0  0  0  0  0  0  0
    9.8903   41.2265   34.2931 P   0  0  0  0  0  0  0  0  0  0  0  0
   10.3742   41.4563   35.8824 O   0  0  0  0  0  0  0  0  0  0  0  0
    9.9459   45.0737   33.2113 C   0  0  1  0  0  0  0  0  0  0  0  0
   11.0266   46.0293   33.4710 N   0  0  0  0  0  0  0  0  0  0  0  0
    9.7540   44.8543   31.6950 C   0  0  0  0  0  0  0  0  0  0  0  0
    8.7957   45.8414   31.0851 C   0  0  0  0  0  0  0  0  0  0  0  0
    7.4091   45.5998   31.1006 C   0  0  0  0  0  0  0  0  0  0  0  0
    9.2825   46.9875   30.4390 C   0  0  0  0  0  0  0  0  0  0  0  0
    6.5262   46.4984   30.4853 C   0  0  0  0  0  0  0  0  0  0  0  0
    8.3997   47.8865   29.8299 C   0  0  0  0  0  0  0  0  0  0  0  0
    7.0178   47.6562   29.8489 C   0  0  0  0  0  0  0  0  0  0  0  0
    6.1810   48.5965   29.2256 O   0  0  0  0  0  0  0  0  0  0  0  0
    4.7537   48.6018   29.2746 C   0  0  2  0  0  0  0  0  0  0  0  0
    4.2113   49.6037   28.2547 C   0  0  0  0  0  0  0  0  0  0  0  0
    4.2446   48.9153   30.6754 C   0  0  0  0  0  0  0  0  0  0  0  0
    3.3592   47.9881   31.2788 C   0  0  0  0  0  0  0  0  0  0  0  0
    4.5711   50.1257   31.3800 C   0  0  0  0  0  0  0  0  0  0  0  0
    2.8400   48.2800   32.5329 C   0  0  0  0  0  0  0  0  0  0  0  0
    3.9978   50.3747   32.6466 C   0  0  0  0  0  0  0  0  0  0  0  0
    5.4446   51.1195   30.8274 N   0  0  0  0  0  0  0  0  0  0  0  0
    1.9715   47.5267   33.2993 O   0  0  0  0  0  0  0  0  0  0  0  0
    3.1445   49.4232   33.1873 C   0  0  0  0  0  0  0  0  0  0  0  0
    5.0877   52.4461   30.8991 O   0  0  0  0  0  0  0  0  0  0  0  0
    6.6243   50.8302   30.5449 O   0  0  0  0  0  0  0  0  0  0  0  0
    1.7172   48.2450   34.5143 C   0  0  0  0  0  0  0  0  0  0  0  0
    2.4854   49.4507   34.4012 O   0  0  0  0  0  0  0  0  0  0  0  0
    8.8124   40.1845   34.2129 O   0  0  0  0  0  0  0  0  0  0  0  0
   11.2404   40.7948   33.3669 O   0  0  0  0  0  0  0  0  0  0  0  0
   10.9133   40.6866   31.9952 C   0  0  0  0  0  0  0  0  0  0  0  0
   11.5166   39.3787   31.4404 C   0  0  0  0  0  0  0  0  0  0  0  0
   12.7485   39.0849   32.0735 O   0  0  0  0  0  0  0  0  0  0  0  0
   10.6039   38.1884   31.6669 C   0  0  0  0  0  0  0  0  0  0  0  0
   12.9329   37.6776   32.0284 C   0  0  0  0  0  0  0  0  0  0  0  0
    9.6373   38.0938   30.6484 O   0  0  0  0  0  0  0  0  0  0  0  0
   11.5737   37.0141   31.7055 C   0  0  0  0  0  0  0  0  0  0  0  0
   13.4853   37.2120   33.3238 N   0  0  0  0  0  0  0  0  0  0  0  0
   11.6210   36.3379   30.4683 O   0  0  0  0  0  0  0  0  0  0  0  0
   14.4804   36.3319   33.5726 C   0  0  0  0  0  0  0  0  0  0  0  0
   13.1141   37.6275   34.5689 C   0  0  0  0  0  0  0  0  0  0  0  0
   15.2076   35.6152   32.6740 N   0  0  0  0  0  0  0  0  0  0  0  0
   14.6761   36.2306   34.9181 C   0  0  0  0  0  0  0  0  0  0  0  0
   13.8218   37.0451   35.5783 N   0  0  0  0  0  0  0  0  0  0  0  0
   16.1642   34.7600   33.1548 C   0  0  0  0  0  0  0  0  0  0  0  0
   15.6528   35.3507   35.4131 C   0  0  0  0  0  0  0  0  0  0  0  0
   16.3795   34.6315   34.5043 N   0  0  0  0  0  0  0  0  0  0  0  0
   15.9001   35.1933   36.8090 N   0  0  0  0  0  0  0  0  0  0  0  0
    8.9994   45.4382   33.6723 H   0  0  0  0  0  0  0  0  0  0  0  0
   10.7763   46.9370   33.0161 H   0  0  0  0  0  0  0  0  0  0  0  0
   11.0501   46.2278   34.4984 H   0  0  0  0  0  0  0  0  0  0  0  0
   10.7412   44.9081   31.1837 H   0  0  0  0  0  0  0  0  0  0  0  0
    9.3645   43.8356   31.4711 H   0  0  0  0  0  0  0  0  0  0  0  0
    7.0152   44.7135   31.5826 H   0  0  0  0  0  0  0  0  0  0  0  0
   10.3463   47.1872   30.4043 H   0  0  0  0  0  0  0  0  0  0  0  0
    5.4706   46.2748   30.5064 H   0  0  0  0  0  0  0  0  0  0  0  0
    8.7917   48.7689   29.3401 H   0  0  0  0  0  0  0  0  0  0  0  0
    4.3894   47.6042   28.9424 H   0  0  0  0  0  0  0  0  0  0  0  0
    3.1017   49.6381   28.3034 H   0  0  0  0  0  0  0  0  0  0  0  0
    4.5073   49.2897   27.2312 H   0  0  0  0  0  0  0  0  0  0  0  0
    4.6138   50.6214   28.4318 H   0  0  0  0  0  0  0  0  0  0  0  0
    3.0724   47.0697   30.7825 H   0  0  0  0  0  0  0  0  0  0  0  0
    4.2221   51.2798   33.1965 H   0  0  0  0  0  0  0  0  0  0  0  0
    2.0594   47.6533   35.3891 H   0  0  0  0  0  0  0  0  0  0  0  0
    0.6367   48.4855   34.5993 H   0  0  0  0  0  0  0  0  0  0  0  0
   11.3826   41.5438   31.4666 H   0  0  0  0  0  0  0  0  0  0  0  0
    9.8224   40.7224   31.7629 H   0  0  0  0  0  0  0  0  0  0  0  0
   11.6979   39.5036   30.3478 H   0  0  0  0  0  0  0  0  0  0  0  0
   10.1084   38.2786   32.6627 H   0  0  0  0  0  0  0  0  0  0  0  0
   13.6638   37.4473   31.2214 H   0  0  0  0  0  0  0  0  0  0  0  0
    8.9763   37.4190   30.9532 H   0  0  0  0  0  0  0  0  0  0  0  0
   11.2821   36.3054   32.5172 H   0  0  0  0  0  0  0  0  0  0  0  0
   10.8658   35.6935   30.4652 H   0  0  0  0  0  0  0  0  0  0  0  0
   12.3293   38.3523   34.7445 H   0  0  0  0  0  0  0  0  0  0  0  0
   16.7561   34.1778   32.4621 H   0  0  0  0  0  0  0  0  0  0  0  0
   15.3533   35.7361   37.5138 H   0  0  0  0  0  0  0  0  0  0  0  0
   16.6345   34.5300   37.1416 H   0  0  0  0  0  0  0  0  0  0  0  0
  1  2  2  0
  1  3  1  0
  3  4  1  0
  4  5  1  0
  6  1  1  0
  7  6  1  0
  6  8  1  0
  8  9  1  0
  9 10  2  0
 11  9  1  0
 10 12  1  0
 13 11  2  0
 12 14  2  0
 14 13  1  0
 14 15  1  0
 15 16  1  0
 16 17  1  0
 16 18  1  0
 18 19  2  0
 20 18  1  0
 19 21  1  0
 22 20  2  0
 20 23  1  0
 21 24  1  0
 21 25  2  0
 25 22  1  0
 23 26  1  0
 23 27  2  0
 24 28  1  0
 25 29  1  0
 28 29  1  0
  4 30  2  0
  4 31  1  0
 32 31  1  0
 32 33  1  0
 33 34  1  0
 33 35  1  0
 34 36  1  0
 35 37  1  0
 35 38  1  0
 38 36  1  0
 36 39  1  0
 38 40  1  0
 41 39  1  0
 42 39  1  0
 43 41  2  0
 41 44  1  0
 45 42  2  0
 46 43  1  0
 44 47  2  0
 44 45  1  0
 48 46  2  0
 48 47  1  0
 47 49  1  0
  6 50  1  1
  7 51  1  0
  7 52  1  0
  8 53  1  0
  8 54  1  0
 10 55  1  0
 11 56  1  0
 12 57  1  0
 13 58  1  0
 16 59  1  6
 17 60  1  0
 17 61  1  0
 17 62  1  0
 19 63  1  0
 22 64  1  0
 28 65  1  0
 28 66  1  0
 32 67  1  0
 32 68  1  0
 33 69  1  0
 35 70  1  0
 36 71  1  0
 37 72  1  0
 38 73  1  0
 40 74  1  0
 42 75  1  0
 46 76  1  0
 49 77  1  0
 49 78  1  0
M  CHG  3   5  -1  23   1  26  -1
M  END
>  <EmbedRMS>  (26) 
0.0823716429131

$$$$

     RDKit          3D

 78 83  0  0  0  0  0  0  0  0999 V2000
   10.2835   43.7662   33.8256 C   0  0  0  0  0  0  0  0  0  0  0  0
   11.4102   43.5930   34.3752 O   0  0  0  0  0  0  0  0  0  0  0  0
    9.3638   42.7255   33.7349 O   0  0  0  0  0  0  0  0  0  0  0  0
    9.8903   41.2267   34.2942 P   0  0  0  0  0  0  0  0  0  0  0  0
   10.3735   41.4561   35.8837 O   0  0  0  0  0  0  0  0  0  0  0  0
    9.9548   45.0695   33.2034 C   0  0  1  0  0  0  0  0  0  0  0  0
   11.0274   46.0322   33.4759 N   0  0  0  0  0  0  0  0  0  0  0  0
    9.7472   44.8482   31.6874 C   0  0  0  0  0  0  0  0  0  0  0  0
    8.7927   45.8406   31.0840 C   0  0  0  0  0  0  0  0  0  0  0  0
    7.4061   45.6013   31.0996 C   0  0  0  0  0  0  0  0  0  0  0  0
    9.2817   46.9879   30.4425 C   0  0  0  0  0  0  0  0  0  0  0  0
    6.5241   46.5015   30.4858 C   0  0  0  0  0  0  0  0  0  0  0  0
    8.4003   47.8883   29.8334 C   0  0  0  0  0  0  0  0  0  0  0  0
    7.0184   47.6562   29.8438 C   0  0  0  0  0  0  0  0  0  0  0  0
    6.1871   48.5988   29.2156 O   0  0  0  0  0  0  0  0  0  0  0  0
    4.7758   48.4785   29.0184 C   0  0  2  0  0  0  0  0  0  0  0  0
    4.4755   47.4599   27.9105 C   0  0  0  0  0  0  0  0  0  0  0  0
    4.2183   49.8415   28.6476 C   0  0  0  0  0  0  0  0  0  0  0  0
    4.7359   50.4946   27.5009 C   0  0  0  0  0  0  0  0  0  0  0  0
    3.1624   50.4691   29.3903 C   0  0  0  0  0  0  0  0  0  0  0  0
    4.1710   51.7018   27.1111 C   0  0  0  0  0  0  0  0  0  0  0  0
    2.6147   51.6891   28.9348 C   0  0  0  0  0  0  0  0  0  0  0  0
    2.6530   49.9046   30.6063 N   0  0  0  0  0  0  0  0  0  0  0  0
    4.5050   52.4979   26.0324 O   0  0  0  0  0  0  0  0  0  0  0  0
    3.1512   52.2705   27.7939 C   0  0  0  0  0  0  0  0  0  0  0  0
    1.2989   49.9225   30.8478 O   0  0  0  0  0  0  0  0  0  0  0  0
    3.4304   49.6658   31.5533 O   0  0  0  0  0  0  0  0  0  0  0  0
    3.6376   53.6400   26.0402 C   0  0  0  0  0  0  0  0  0  0  0  0
    2.7892   53.4550   27.1817 O   0  0  0  0  0  0  0  0  0  0  0  0
    8.8121   40.1850   34.2131 O   0  0  0  0  0  0  0  0  0  0  0  0
   11.2407   40.7939   33.3693 O   0  0  0  0  0  0  0  0  0  0  0  0
   10.9151   40.6905   31.9974 C   0  0  0  0  0  0  0  0  0  0  0  0
   11.5252   39.3886   31.4375 C   0  0  0  0  0  0  0  0  0  0  0  0
   12.7500   39.0874   32.0799 O   0  0  0  0  0  0  0  0  0  0  0  0
   10.6092   38.1926   31.6470 C   0  0  0  0  0  0  0  0  0  0  0  0
   12.9332   37.6793   32.0294 C   0  0  0  0  0  0  0  0  0  0  0  0
    9.6122   38.0895   30.6542 O   0  0  0  0  0  0  0  0  0  0  0  0
   11.5743   37.0145   31.7024 C   0  0  0  0  0  0  0  0  0  0  0  0
   13.4844   37.2108   33.3241 N   0  0  0  0  0  0  0  0  0  0  0  0
   11.6297   36.3239   30.4740 O   0  0  0  0  0  0  0  0  0  0  0  0
   14.4802   36.3313   33.5727 C   0  0  0  0  0  0  0  0  0  0  0  0
   13.1139   37.6267   34.5692 C   0  0  0  0  0  0  0  0  0  0  0  0
   15.2075   35.6149   32.6739 N   0  0  0  0  0  0  0  0  0  0  0  0
   14.6761   36.2303   34.9181 C   0  0  0  0  0  0  0  0  0  0  0  0
   13.8220   37.0447   35.5785 N   0  0  0  0  0  0  0  0  0  0  0  0
   16.1643   34.7600   33.1547 C   0  0  0  0  0  0  0  0  0  0  0  0
   15.6529   35.3505   35.4130 C   0  0  0  0  0  0  0  0  0  0  0  0
   16.3798   34.6315   34.5042 N   0  0  0  0  0  0  0  0  0  0  0  0
   15.9003   35.1932   36.8090 N   0  0  0  0  0  0  0  0  0  0  0  0
    9.0121   45.4317   33.6711 H   0  0  0  0  0  0  0  0  0  0  0  0
   11.8908   45.7659   32.9476 H   0  0  0  0  0  0  0  0  0  0  0  0
   10.7260   46.9688   33.1214 H   0  0  0  0  0  0  0  0  0  0  0  0
   10.7237   44.8823   31.1557 H   0  0  0  0  0  0  0  0  0  0  0  0
    9.3427   43.8329   31.4757 H   0  0  0  0  0  0  0  0  0  0  0  0
    7.0106   44.7169   31.5839 H   0  0  0  0  0  0  0  0  0  0  0  0
   10.3459   47.1867   30.4113 H   0  0  0  0  0  0  0  0  0  0  0  0
    5.4668   46.2855   30.5251 H   0  0  0  0  0  0  0  0  0  0  0  0
    8.7942   48.7707   29.3450 H   0  0  0  0  0  0  0  0  0  0  0  0
    4.3020   48.1082   29.9456 H   0  0  0  0  0  0  0  0  0  0  0  0
    4.7952   46.4438   28.2190 H   0  0  0  0  0  0  0  0  0  0  0  0
    5.0134   47.7199   26.9748 H   0  0  0  0  0  0  0  0  0  0  0  0
    3.3839   47.4304   27.7051 H   0  0  0  0  0  0  0  0  0  0  0  0
    5.5456   50.0680   26.9228 H   0  0  0  0  0  0  0  0  0  0  0  0
    1.8139   52.1814   29.4715 H   0  0  0  0  0  0  0  0  0  0  0  0
    4.2307   54.5719   26.1507 H   0  0  0  0  0  0  0  0  0  0  0  0
    3.0299   53.6671   25.1115 H   0  0  0  0  0  0  0  0  0  0  0  0
    9.8243   40.7216   31.7643 H   0  0  0  0  0  0  0  0  0  0  0  0
   11.3802   41.5529   31.4733 H   0  0  0  0  0  0  0  0  0  0  0  0
   11.7266   39.5311   30.3513 H   0  0  0  0  0  0  0  0  0  0  0  0
   10.1110   38.2747   32.6387 H   0  0  0  0  0  0  0  0  0  0  0  0
   13.6652   37.4519   31.2226 H   0  0  0  0  0  0  0  0  0  0  0  0
   10.0512   38.1143   29.7645 H   0  0  0  0  0  0  0  0  0  0  0  0
   11.2762   36.3141   32.5189 H   0  0  0  0  0  0  0  0  0  0  0  0
   10.8593   35.6978   30.4640 H   0  0  0  0  0  0  0  0  0  0  0  0
   12.3295   38.3518   34.7449 H   0  0  0  0  0  0  0  0  0  0  0  0
   16.7564   34.1779   32.4620 H   0  0  0  0  0  0  0  0  0  0  0  0
   15.3534   35.7359   37.5138 H   0  0  0  0  0  0  0  0  0  0  0  0
   16.6349   34.5300   37.1415 H   0  0  0  0  0  0  0  0  0  0  0  0
  1  2  2  0
  1  3  1  0
  3  4  1  0
  4  5  1  0
  6  1  1  0
  7  6  1  0
  6  8  1  0
  8  9  1  0
  9 10  2  0
 11  9  1  0
 10 12  1  0
 13 11  2  0
 12 14  2  0
 14 13  1  0
 14 15  1  0
 15 16  1  0
 16 17  1  0
 16 18  1  0
 18 19  2  0
 20 18  1  0
 19 21  1  0
 22 20  2  0
 20 23  1  0
 21 24  1  0
 21 25  2  0
 25 22  1  0
 23 26  1  0
 23 27  2  0
 24 28  1  0
 25 29  1  0
 28 29  1  0
  4 30  2  0
  4 31  1  0
 32 31  1  0
 32 33  1  0
 33 34  1  0
 33 35  1  0
 34 36  1  0
 35 37  1  0
 35 38  1  0
 38 36  1  0
 36 39  1  0
 38 40  1  0
 41 39  1  0
 42 39  1  0
 43 41  2  0
 41 44  1  0
 45 42  2  0
 46 43  1  0
 44 47  2  0
 44 45  1  0
 48 46  2  0
 48 47  1  0
 47 49  1  0
  6 50  1  1
  7 51  1  0
  7 52  1  0
  8 53  1  0
  8 54  1  0
 10 55  1  0
 11 56  1  0
 12 57  1  0
 13 58  1  0
 16 59  1  1
 17 60  1  0
 17 61  1  0
 17 62  1  0
 19 63  1  0
 22 64  1  0
 28 65  1  0
 28 66  1  0
 32 67  1  0
 32 68  1  0
 33 69  1  0
 35 70  1  0
 36 71  1  0
 37 72  1  0
 38 73  1  0
 40 74  1  0
 42 75  1  0
 46 76  1  0
 49 77  1  0
 49 78  1  0
M  CHG  3   5  -1  23   1  26  -1
M  END
>  <EmbedRMS>  (27) 
0.0818049934156

$$$$

     RDKit          3D

 78 83  0  0  0  0  0  0  0  0999 V2000
   10.2835   43.7662   33.8256 C   0  0  0  0  0  0  0  0  0  0  0  0
   11.4102   43.5930   34.3752 O   0  0  0  0  0  0  0  0  0  0  0  0
    9.3638   42.7255   33.7349 O   0  0  0  0  0  0  0  0  0  0  0  0
    9.8903   41.2267   34.2942 P   0  0  0  0  0  0  0  0  0  0  0  0
   10.3735   41.4561   35.8837 O   0  0  0  0  0  0  0  0  0  0  0  0
    9.9547   45.0695   33.2036 C   0  0  1  0  0  0  0  0  0  0  0  0
   11.0273   46.0323   33.4760 N   0  0  0  0  0  0  0  0  0  0  0  0
    9.7471   44.8485   31.6877 C   0  0  0  0  0  0  0  0  0  0  0  0
    8.7926   45.8411   31.0847 C   0  0  0  0  0  0  0  0  0  0  0  0
    7.4060   45.6009   31.0989 C   0  0  0  0  0  0  0  0  0  0  0  0
    9.2818   46.9875   30.4415 C   0  0  0  0  0  0  0  0  0  0  0  0
    6.5247   46.5005   30.4839 C   0  0  0  0  0  0  0  0  0  0  0  0
    8.4005   47.8873   29.8313 C   0  0  0  0  0  0  0  0  0  0  0  0
    7.0182   47.6579   29.8480 C   0  0  0  0  0  0  0  0  0  0  0  0
    6.1828   48.5991   29.2236 O   0  0  0  0  0  0  0  0  0  0  0  0
    4.7550   48.5841   29.2419 C   0  0  2  0  0  0  0  0  0  0  0  0
    4.2222   49.5821   28.2133 C   0  0  0  0  0  0  0  0  0  0  0  0
    4.2140   48.8906   30.6311 C   0  0  0  0  0  0  0  0  0  0  0  0
    3.3088   47.9679   31.2107 C   0  0  0  0  0  0  0  0  0  0  0  0
    4.5366   50.0926   31.3470 C   0  0  0  0  0  0  0  0  0  0  0  0
    2.7678   48.2582   32.4564 C   0  0  0  0  0  0  0  0  0  0  0  0
    3.9442   50.3411   32.6049 C   0  0  0  0  0  0  0  0  0  0  0  0
    5.4363   51.0714   30.8135 N   0  0  0  0  0  0  0  0  0  0  0  0
    1.8778   47.5091   33.2019 O   0  0  0  0  0  0  0  0  0  0  0  0
    3.0710   49.3950   33.1235 C   0  0  0  0  0  0  0  0  0  0  0  0
    6.7699   50.7691   30.6737 O   0  0  0  0  0  0  0  0  0  0  0  0
    5.0818   52.2669   30.7601 O   0  0  0  0  0  0  0  0  0  0  0  0
    1.6073   48.2229   34.4160 C   0  0  0  0  0  0  0  0  0  0  0  0
    2.3891   49.4218   34.3248 O   0  0  0  0  0  0  0  0  0  0  0  0
    8.8121   40.1850   34.2130 O   0  0  0  0  0  0  0  0  0  0  0  0
   11.2407   40.7939   33.3694 O   0  0  0  0  0  0  0  0  0  0  0  0
   10.9151   40.6905   31.9974 C   0  0  0  0  0  0  0  0  0  0  0  0
   11.5252   39.3886   31.4375 C   0  0  0  0  0  0  0  0  0  0  0  0
   12.7500   39.0874   32.0799 O   0  0  0  0  0  0  0  0  0  0  0  0
   10.6092   38.1926   31.6470 C   0  0  0  0  0  0  0  0  0  0  0  0
   12.9332   37.6793   32.0294 C   0  0  0  0  0  0  0  0  0  0  0  0
    9.6122   38.0895   30.6542 O   0  0  0  0  0  0  0  0  0  0  0  0
   11.5743   37.0145   31.7024 C   0  0  0  0  0  0  0  0  0  0  0  0
   13.4844   37.2108   33.3241 N   0  0  0  0  0  0  0  0  0  0  0  0
   11.6297   36.3239   30.4740 O   0  0  0  0  0  0  0  0  0  0  0  0
   14.4802   36.3313   33.5727 C   0  0  0  0  0  0  0  0  0  0  0  0
   13.1138   37.6266   34.5692 C   0  0  0  0  0  0  0  0  0  0  0  0
   15.2075   35.6149   32.6739 N   0  0  0  0  0  0  0  0  0  0  0  0
   14.6761   36.2303   34.9181 C   0  0  0  0  0  0  0  0  0  0  0  0
   13.8220   37.0447   35.5785 N   0  0  0  0  0  0  0  0  0  0  0  0
   16.1643   34.7600   33.1547 C   0  0  0  0  0  0  0  0  0  0  0  0
   15.6529   35.3505   35.4130 C   0  0  0  0  0  0  0  0  0  0  0  0
   16.3798   34.6315   34.5042 N   0  0  0  0  0  0  0  0  0  0  0  0
   15.9003   35.1932   36.8090 N   0  0  0  0  0  0  0  0  0  0  0  0
    9.0120   45.4317   33.6713 H   0  0  0  0  0  0  0  0  0  0  0  0
   11.8907   45.7660   32.9477 H   0  0  0  0  0  0  0  0  0  0  0  0
   10.7259   46.9689   33.1216 H   0  0  0  0  0  0  0  0  0  0  0  0
   10.7236   44.8825   31.1559 H   0  0  0  0  0  0  0  0  0  0  0  0
    9.3425   43.8332   31.4759 H   0  0  0  0  0  0  0  0  0  0  0  0
    7.0105   44.7144   31.5794 H   0  0  0  0  0  0  0  0  0  0  0  0
   10.3460   47.1858   30.4094 H   0  0  0  0  0  0  0  0  0  0  0  0
    5.4687   46.2788   30.5057 H   0  0  0  0  0  0  0  0  0  0  0  0
    8.7939   48.7696   29.3425 H   0  0  0  0  0  0  0  0  0  0  0  0
    4.4098   47.5824   28.9016 H   0  0  0  0  0  0  0  0  0  0  0  0
    4.6090   50.6038   28.4023 H   0  0  0  0  0  0  0  0  0  0  0  0
    4.5439   49.2747   27.1956 H   0  0  0  0  0  0  0  0  0  0  0  0
    3.1116   49.6031   28.2383 H   0  0  0  0  0  0  0  0  0  0  0  0
    3.0253   47.0545   30.7034 H   0  0  0  0  0  0  0  0  0  0  0  0
    4.1683   51.2413   33.1629 H   0  0  0  0  0  0  0  0  0  0  0  0
    1.9270   47.6229   35.2937 H   0  0  0  0  0  0  0  0  0  0  0  0
    0.5278   48.4736   34.4818 H   0  0  0  0  0  0  0  0  0  0  0  0
    9.8243   40.7216   31.7643 H   0  0  0  0  0  0  0  0  0  0  0  0
   11.3802   41.5529   31.4733 H   0  0  0  0  0  0  0  0  0  0  0  0
   11.7266   39.5311   30.3513 H   0  0  0  0  0  0  0  0  0  0  0  0
   10.1110   38.2747   32.6387 H   0  0  0  0  0  0  0  0  0  0  0  0
   13.6652   37.4519   31.2226 H   0  0  0  0  0  0  0  0  0  0  0  0
   10.0511   38.1143   29.7645 H   0  0  0  0  0  0  0  0  0  0  0  0
   11.2762   36.3141   32.5189 H   0  0  0  0  0  0  0  0  0  0  0  0
   10.8593   35.6978   30.4640 H   0  0  0  0  0  0  0  0  0  0  0  0
   12.3294   38.3518   34.7449 H   0  0  0  0  0  0  0  0  0  0  0  0
   16.7564   34.1780   32.4620 H   0  0  0  0  0  0  0  0  0  0  0  0
   16.6349   34.5300   37.1415 H   0  0  0  0  0  0  0  0  0  0  0  0
   15.3534   35.7359   37.5138 H   0  0  0  0  0  0  0  0  0  0  0  0
  1  2  2  0
  1  3  1  0
  3  4  1  0
  4  5  1  0
  6  1  1  0
  7  6  1  0
  6  8  1  0
  8  9  1  0
  9 10  2  0
 11  9  1  0
 10 12  1  0
 13 11  2  0
 12 14  2  0
 14 13  1  0
 14 15  1  0
 15 16  1  0
 16 17  1  0
 16 18  1  0
 18 19  2  0
 20 18  1  0
 19 21  1  0
 22 20  2  0
 20 23  1  0
 21 24  1  0
 21 25  2  0
 25 22  1  0
 23 26  1  0
 23 27  2  0
 24 28  1  0
 25 29  1  0
 28 29  1  0
  4 30  2  0
  4 31  1  0
 32 31  1  0
 32 33  1  0
 33 34  1  0
 33 35  1  0
 34 36  1  0
 35 37  1  0
 35 38  1  0
 38 36  1  0
 36 39  1  0
 38 40  1  0
 41 39  1  0
 42 39  1  0
 43 41  2  0
 41 44  1  0
 45 42  2  0
 46 43  1  0
 44 47  2  0
 44 45  1  0
 48 46  2  0
 48 47  1  0
 47 49  1  0
  6 50  1  1
  7 51  1  0
  7 52  1  0
  8 53  1  0
  8 54  1  0
 10 55  1  0
 11 56  1  0
 12 57  1  0
 13 58  1  0
 16 59  1  6
 17 60  1  0
 17 61  1  0
 17 62  1  0
 19 63  1  0
 22 64  1  0
 28 65  1  0
 28 66  1  0
 32 67  1  0
 32 68  1  0
 33 69  1  0
 35 70  1  0
 36 71  1  0
 37 72  1  0
 38 73  1  0
 40 74  1  0
 42 75  1  0
 46 76  1  0
 49 77  1  0
 49 78  1  0
M  CHG  3   5  -1  23   1  26  -1
M  END
>  <EmbedRMS>  (28) 
0.081804060689

$$$$

     RDKit          3D

 78 83  0  0  0  0  0  0  0  0999 V2000
   10.2835   43.7662   33.8257 C   0  0  0  0  0  0  0  0  0  0  0  0
   11.4102   43.5931   34.3753 O   0  0  0  0  0  0  0  0  0  0  0  0
    9.3638   42.7255   33.7350 O   0  0  0  0  0  0  0  0  0  0  0  0
    9.8903   41.2267   34.2943 P   0  0  0  0  0  0  0  0  0  0  0  0
   10.3735   41.4561   35.8837 O   0  0  0  0  0  0  0  0  0  0  0  0
    9.9546   45.0695   33.2036 C   0  0  1  0  0  0  0  0  0  0  0  0
   11.0272   46.0323   33.4756 N   0  0  0  0  0  0  0  0  0  0  0  0
    9.7467   44.8478   31.6877 C   0  0  0  0  0  0  0  0  0  0  0  0
    8.7924   45.8402   31.0842 C   0  0  0  0  0  0  0  0  0  0  0  0
    7.4062   45.6013   31.0987 C   0  0  0  0  0  0  0  0  0  0  0  0
    9.2817   46.9869   30.4425 C   0  0  0  0  0  0  0  0  0  0  0  0
    6.5280   46.5034   30.4839 C   0  0  0  0  0  0  0  0  0  0  0  0
    8.4031   47.8894   29.8320 C   0  0  0  0  0  0  0  0  0  0  0  0
    7.0128   47.6547   29.8471 C   0  0  0  0  0  0  0  0  0  0  0  0
    6.0717   48.5229   29.2633 O   0  0  0  0  0  0  0  0  0  0  0  0
    6.3259   49.7425   28.5530 C   0  0  2  0  0  0  0  0  0  0  0  0
    6.9358   49.4333   27.1765 C   0  0  0  0  0  0  0  0  0  0  0  0
    7.0747   50.7557   29.4209 C   0  0  0  0  0  0  0  0  0  0  0  0
    8.2364   51.4157   28.9338 C   0  0  0  0  0  0  0  0  0  0  0  0
    6.6307   51.0387   30.7599 C   0  0  0  0  0  0  0  0  0  0  0  0
    8.9222   52.2733   29.7830 C   0  0  0  0  0  0  0  0  0  0  0  0
    7.3821   51.9101   31.5800 C   0  0  0  0  0  0  0  0  0  0  0  0
    5.4393   50.4478   31.3067 N   0  0  0  0  0  0  0  0  0  0  0  0
   10.0701   52.9982   29.5255 O   0  0  0  0  0  0  0  0  0  0  0  0
    8.5166   52.5060   31.0506 C   0  0  0  0  0  0  0  0  0  0  0  0
    5.3837   50.1333   32.6450 O   0  0  0  0  0  0  0  0  0  0  0  0
    4.3896   50.3974   30.6338 O   0  0  0  0  0  0  0  0  0  0  0  0
   10.4046   53.7330   30.7106 C   0  0  0  0  0  0  0  0  0  0  0  0
    9.3862   53.3900   31.6600 O   0  0  0  0  0  0  0  0  0  0  0  0
    8.8122   40.1850   34.2131 O   0  0  0  0  0  0  0  0  0  0  0  0
   11.2407   40.7940   33.3693 O   0  0  0  0  0  0  0  0  0  0  0  0
   10.9151   40.6905   31.9974 C   0  0  0  0  0  0  0  0  0  0  0  0
   11.5252   39.3886   31.4375 C   0  0  0  0  0  0  0  0  0  0  0  0
   12.7500   39.0874   32.0799 O   0  0  0  0  0  0  0  0  0  0  0  0
   10.6092   38.1926   31.6470 C   0  0  0  0  0  0  0  0  0  0  0  0
   12.9332   37.6793   32.0294 C   0  0  0  0  0  0  0  0  0  0  0  0
    9.6122   38.0895   30.6542 O   0  0  0  0  0  0  0  0  0  0  0  0
   11.5743   37.0145   31.7024 C   0  0  0  0  0  0  0  0  0  0  0  0
   13.4844   37.2108   33.3241 N   0  0  0  0  0  0  0  0  0  0  0  0
   11.6297   36.3239   30.4740 O   0  0  0  0  0  0  0  0  0  0  0  0
   14.4802   36.3313   33.5727 C   0  0  0  0  0  0  0  0  0  0  0  0
   13.1139   37.6267   34.5692 C   0  0  0  0  0  0  0  0  0  0  0  0
   15.2075   35.6149   32.6739 N   0  0  0  0  0  0  0  0  0  0  0  0
   14.6761   36.2303   34.9181 C   0  0  0  0  0  0  0  0  0  0  0  0
   13.8220   37.0447   35.5785 N   0  0  0  0  0  0  0  0  0  0  0  0
   16.1643   34.7600   33.1547 C   0  0  0  0  0  0  0  0  0  0  0  0
   15.6529   35.3505   35.4130 C   0  0  0  0  0  0  0  0  0  0  0  0
   16.3798   34.6315   34.5042 N   0  0  0  0  0  0  0  0  0  0  0  0
   15.9003   35.1932   36.8090 N   0  0  0  0  0  0  0  0  0  0  0  0
    9.0119   45.4317   33.6713 H   0  0  0  0  0  0  0  0  0  0  0  0
   11.8904   45.7661   32.9468 H   0  0  0  0  0  0  0  0  0  0  0  0
   10.7256   46.9689   33.1213 H   0  0  0  0  0  0  0  0  0  0  0  0
    9.3417   43.8326   31.4764 H   0  0  0  0  0  0  0  0  0  0  0  0
   10.7231   44.8812   31.1558 H   0  0  0  0  0  0  0  0  0  0  0  0
    7.0086   44.7169   31.5811 H   0  0  0  0  0  0  0  0  0  0  0  0
   10.3463   47.1845   30.4129 H   0  0  0  0  0  0  0  0  0  0  0  0
    5.4634   46.3079   30.5053 H   0  0  0  0  0  0  0  0  0  0  0  0
    8.8254   48.7592   29.3577 H   0  0  0  0  0  0  0  0  0  0  0  0
    5.3369   50.1958   28.3304 H   0  0  0  0  0  0  0  0  0  0  0  0
    6.3102   48.6768   26.6568 H   0  0  0  0  0  0  0  0  0  0  0  0
    7.9640   49.0289   27.2602 H   0  0  0  0  0  0  0  0  0  0  0  0
    6.9506   50.3486   26.5473 H   0  0  0  0  0  0  0  0  0  0  0  0
    8.6207   51.2619   27.9363 H   0  0  0  0  0  0  0  0  0  0  0  0
    7.0774   52.1327   32.5945 H   0  0  0  0  0  0  0  0  0  0  0  0
   11.4010   53.4206   31.0878 H   0  0  0  0  0  0  0  0  0  0  0  0
   10.3849   54.8237   30.5046 H   0  0  0  0  0  0  0  0  0  0  0  0
   11.3802   41.5529   31.4733 H   0  0  0  0  0  0  0  0  0  0  0  0
    9.8243   40.7216   31.7643 H   0  0  0  0  0  0  0  0  0  0  0  0
   11.7266   39.5311   30.3513 H   0  0  0  0  0  0  0  0  0  0  0  0
   10.1110   38.2747   32.6387 H   0  0  0  0  0  0  0  0  0  0  0  0
   13.6652   37.4519   31.2226 H   0  0  0  0  0  0  0  0  0  0  0  0
   10.0511   38.1143   29.7645 H   0  0  0  0  0  0  0  0  0  0  0  0
   11.2762   36.3141   32.5189 H   0  0  0  0  0  0  0  0  0  0  0  0
   10.8593   35.6978   30.4640 H   0  0  0  0  0  0  0  0  0  0  0  0
   12.3295   38.3518   34.7449 H   0  0  0  0  0  0  0  0  0  0  0  0
   16.7564   34.1780   32.4620 H   0  0  0  0  0  0  0  0  0  0  0  0
   15.3534   35.7359   37.5138 H   0  0  0  0  0  0  0  0  0  0  0  0
   16.6349   34.5300   37.1415 H   0  0  0  0  0  0  0  0  0  0  0  0
  1  2  2  0
  1  3  1  0
  3  4  1  0
  4  5  1  0
  6  1  1  0
  7  6  1  0
  6  8  1  0
  8  9  1  0
  9 10  2  0
 11  9  1  0
 10 12  1  0
 13 11  2  0
 12 14  2  0
 14 13  1  0
 14 15  1  0
 15 16  1  0
 16 17  1  0
 16 18  1  0
 18 19  2  0
 20 18  1  0
 19 21  1  0
 22 20  2  0
 20 23  1  0
 21 24  1  0
 21 25  2  0
 25 22  1  0
 23 26  1  0
 23 27  2  0
 24 28  1  0
 25 29  1  0
 28 29  1  0
  4 30  2  0
  4 31  1  0
 32 31  1  0
 32 33  1  0
 33 34  1  0
 33 35  1  0
 34 36  1  0
 35 37  1  0
 35 38  1  0
 38 36  1  0
 36 39  1  0
 38 40  1  0
 41 39  1  0
 42 39  1  0
 43 41  2  0
 41 44  1  0
 45 42  2  0
 46 43  1  0
 44 47  2  0
 44 45  1  0
 48 46  2  0
 48 47  1  0
 47 49  1  0
  6 50  1  1
  7 51  1  0
  7 52  1  0
  8 53  1  0
  8 54  1  0
 10 55  1  0
 11 56  1  0
 12 57  1  0
 13 58  1  0
 16 59  1  6
 17 60  1  0
 17 61  1  0
 17 62  1  0
 19 63  1  0
 22 64  1  0
 28 65  1  0
 28 66  1  0
 32 67  1  0
 32 68  1  0
 33 69  1  0
 35 70  1  0
 36 71  1  0
 37 72  1  0
 38 73  1  0
 40 74  1  0
 42 75  1  0
 46 76  1  0
 49 77  1  0
 49 78  1  0
M  CHG  3   5  -1  23   1  26  -1
M  END
>  <EmbedRMS>  (29) 
0.0818164286029

$$$$

     RDKit          3D

 78 83  0  0  0  0  0  0  0  0999 V2000
   10.2804   43.7665   33.8250 C   0  0  0  0  0  0  0  0  0  0  0  0
   11.4110   43.5919   34.3667 O   0  0  0  0  0  0  0  0  0  0  0  0
    9.3619   42.7250   33.7344 O   0  0  0  0  0  0  0  0  0  0  0  0
    9.8899   41.2267   34.2939 P   0  0  0  0  0  0  0  0  0  0  0  0
   10.3734   41.4567   35.8832 O   0  0  0  0  0  0  0  0  0  0  0  0
    9.9459   45.0737   33.2114 C   0  0  1  0  0  0  0  0  0  0  0  0
   11.0266   46.0293   33.4710 N   0  0  0  0  0  0  0  0  0  0  0  0
    9.7539   44.8543   31.6951 C   0  0  0  0  0  0  0  0  0  0  0  0
    8.7957   45.8415   31.0853 C   0  0  0  0  0  0  0  0  0  0  0  0
    7.4090   45.5999   31.1006 C   0  0  0  0  0  0  0  0  0  0  0  0
    9.2825   46.9875   30.4391 C   0  0  0  0  0  0  0  0  0  0  0  0
    6.5262   46.4983   30.4851 C   0  0  0  0  0  0  0  0  0  0  0  0
    8.3998   47.8864   29.8299 C   0  0  0  0  0  0  0  0  0  0  0  0
    7.0179   47.6560   29.8486 C   0  0  0  0  0  0  0  0  0  0  0  0
    6.1812   48.5960   29.2246 O   0  0  0  0  0  0  0  0  0  0  0  0
    4.7538   48.5998   29.2708 C   0  0  2  0  0  0  0  0  0  0  0  0
    4.2124   49.6014   28.2500 C   0  0  0  0  0  0  0  0  0  0  0  0
    4.2416   48.9127   30.6706 C   0  0  0  0  0  0  0  0  0  0  0  0
    3.3555   47.9847   31.2719 C   0  0  0  0  0  0  0  0  0  0  0  0
    4.5655   50.1233   31.3759 C   0  0  0  0  0  0  0  0  0  0  0  0
    2.8331   48.2762   32.5247 C   0  0  0  0  0  0  0  0  0  0  0  0
    3.9890   50.3719   32.6412 C   0  0  0  0  0  0  0  0  0  0  0  0
    5.4394   51.1178   30.8252 N   0  0  0  0  0  0  0  0  0  0  0  0
    1.9633   47.5223   33.2890 O   0  0  0  0  0  0  0  0  0  0  0  0
    3.1352   49.4197   33.1798 C   0  0  0  0  0  0  0  0  0  0  0  0
    5.0811   52.4441   30.8957 O   0  0  0  0  0  0  0  0  0  0  0  0
    6.6200   50.8295   30.5458 O   0  0  0  0  0  0  0  0  0  0  0  0
    1.7056   48.2404   34.5034 C   0  0  0  0  0  0  0  0  0  0  0  0
    2.4731   49.4467   34.3921 O   0  0  0  0  0  0  0  0  0  0  0  0
    8.8123   40.1844   34.2132 O   0  0  0  0  0  0  0  0  0  0  0  0
   11.2405   40.7943   33.3691 O   0  0  0  0  0  0  0  0  0  0  0  0
   10.9150   40.6905   31.9972 C   0  0  0  0  0  0  0  0  0  0  0  0
   11.5252   39.3886   31.4375 C   0  0  0  0  0  0  0  0  0  0  0  0
   12.7500   39.0874   32.0799 O   0  0  0  0  0  0  0  0  0  0  0  0
   10.6092   38.1926   31.6471 C   0  0  0  0  0  0  0  0  0  0  0  0
   12.9332   37.6793   32.0294 C   0  0  0  0  0  0  0  0  0  0  0  0
    9.6121   38.0894   30.6544 O   0  0  0  0  0  0  0  0  0  0  0  0
   11.5743   37.0145   31.7024 C   0  0  0  0  0  0  0  0  0  0  0  0
   13.4845   37.2108   33.3241 N   0  0  0  0  0  0  0  0  0  0  0  0
   11.6297   36.3239   30.4740 O   0  0  0  0  0  0  0  0  0  0  0  0
   14.4802   36.3313   33.5727 C   0  0  0  0  0  0  0  0  0  0  0  0
   13.1139   37.6267   34.5692 C   0  0  0  0  0  0  0  0  0  0  0  0
   15.2075   35.6149   32.6739 N   0  0  0  0  0  0  0  0  0  0  0  0
   14.6761   36.2302   34.9181 C   0  0  0  0  0  0  0  0  0  0  0  0
   13.8220   37.0446   35.5785 N   0  0  0  0  0  0  0  0  0  0  0  0
   16.1643   34.7599   33.1546 C   0  0  0  0  0  0  0  0  0  0  0  0
   15.6530   35.3505   35.4130 C   0  0  0  0  0  0  0  0  0  0  0  0
   16.3798   34.6314   34.5041 N   0  0  0  0  0  0  0  0  0  0  0  0
   15.9003   35.1932   36.8090 N   0  0  0  0  0  0  0  0  0  0  0  0
    8.9995   45.4382   33.6725 H   0  0  0  0  0  0  0  0  0  0  0  0
   10.7763   46.9370   33.0161 H   0  0  0  0  0  0  0  0  0  0  0  0
   11.0502   46.2278   34.4984 H   0  0  0  0  0  0  0  0  0  0  0  0
   10.7411   44.9081   31.1838 H   0  0  0  0  0  0  0  0  0  0  0  0
    9.3644   43.8356   31.4712 H   0  0  0  0  0  0  0  0  0  0  0  0
    7.0151   44.7135   31.5827 H   0  0  0  0  0  0  0  0  0  0  0  0
   10.3463   47.1872   30.4046 H   0  0  0  0  0  0  0  0  0  0  0  0
    5.4707   46.2746   30.5060 H   0  0  0  0  0  0  0  0  0  0  0  0
    8.7919   48.7687   29.3400 H   0  0  0  0  0  0  0  0  0  0  0  0
    4.3911   47.6019   28.9378 H   0  0  0  0  0  0  0  0  0  0  0  0
    4.5092   49.2868   27.2270 H   0  0  0  0  0  0  0  0  0  0  0  0
    4.6153   50.6189   28.4270 H   0  0  0  0  0  0  0  0  0  0  0  0
    3.1029   49.6363   28.2978 H   0  0  0  0  0  0  0  0  0  0  0  0
    3.0704   47.0662   30.7748 H   0  0  0  0  0  0  0  0  0  0  0  0
    4.2112   51.2772   33.1916 H   0  0  0  0  0  0  0  0  0  0  0  0
    0.6247   48.4802   34.5857 H   0  0  0  0  0  0  0  0  0  0  0  0
    2.0461   47.6489   35.3790 H   0  0  0  0  0  0  0  0  0  0  0  0
    9.8241   40.7215   31.7640 H   0  0  0  0  0  0  0  0  0  0  0  0
   11.3800   41.5528   31.4729 H   0  0  0  0  0  0  0  0  0  0  0  0
   11.7265   39.5310   30.3512 H   0  0  0  0  0  0  0  0  0  0  0  0
   10.1111   38.2747   32.6389 H   0  0  0  0  0  0  0  0  0  0  0  0
   13.6652   37.4519   31.2226 H   0  0  0  0  0  0  0  0  0  0  0  0
   10.0510   38.1143   29.7646 H   0  0  0  0  0  0  0  0  0  0  0  0
   11.2763   36.3141   32.5190 H   0  0  0  0  0  0  0  0  0  0  0  0
   10.8594   35.6977   30.4639 H   0  0  0  0  0  0  0  0  0  0  0  0
   12.3295   38.3519   34.7449 H   0  0  0  0  0  0  0  0  0  0  0  0
   16.7563   34.1779   32.4619 H   0  0  0  0  0  0  0  0  0  0  0  0
   16.6349   34.5300   37.1415 H   0  0  0  0  0  0  0  0  0  0  0  0
   15.3535   35.7359   37.5139 H   0  0  0  0  0  0  0  0  0  0  0  0
  1  2  2  0
  1  3  1  0
  3  4  1  0
  4  5  1  0
  6  1  1  0
  7  6  1  0
  6  8  1  0
  8  9  1  0
  9 10  2  0
 11  9  1  0
 10 12  1  0
 13 11  2  0
 12 14  2  0
 14 13  1  0
 14 15  1  0
 15 16  1  0
 16 17  1  0
 16 18  1  0
 18 19  2  0
 20 18  1  0
 19 21  1  0
 22 20  2  0
 20 23  1  0
 21 24  1  0
 21 25  2  0
 25 22  1  0
 23 26  1  0
 23 27  2  0
 24 28  1  0
 25 29  1  0
 28 29  1  0
  4 30  2  0
  4 31  1  0
 32 31  1  0
 32 33  1  0
 33 34  1  0
 33 35  1  0
 34 36  1  0
 35 37  1  0
 35 38  1  0
 38 36  1  0
 36 39  1  0
 38 40  1  0
 41 39  1  0
 42 39  1  0
 43 41  2  0
 41 44  1  0
 45 42  2  0
 46 43  1  0
 44 47  2  0
 44 45  1  0
 48 46  2  0
 48 47  1  0
 47 49  1  0
  6 50  1  1
  7 51  1  0
  7 52  1  0
  8 53  1  0
  8 54  1  0
 10 55  1  0
 11 56  1  0
 12 57  1  0
 13 58  1  0
 16 59  1  6
 17 60  1  0
 17 61  1  0
 17 62  1  0
 19 63  1  0
 22 64  1  0
 28 65  1  0
 28 66  1  0
 32 67  1  0
 32 68  1  0
 33 69  1  0
 35 70  1  0
 36 71  1  0
 37 72  1  0
 38 73  1  0
 40 74  1  0
 42 75  1  0
 46 76  1  0
 49 77  1  0
 49 78  1  0
M  CHG  3   5  -1  23   1  26  -1
M  END
>  <EmbedRMS>  (30) 
0.0816200699002

$$$$

     RDKit          3D

 78 83  0  0  0  0  0  0  0  0999 V2000
   10.2839   43.7626   33.8277 C   0  0  0  0  0  0  0  0  0  0  0  0
   11.4104   43.5862   34.3767 O   0  0  0  0  0  0  0  0  0  0  0  0
    9.3630   42.7236   33.7355 O   0  0  0  0  0  0  0  0  0  0  0  0
    9.8894   41.2249   34.2944 P   0  0  0  0  0  0  0  0  0  0  0  0
   10.3728   41.4546   35.8838 O   0  0  0  0  0  0  0  0  0  0  0  0
    9.9549   45.0699   33.2066 C   0  0  1  0  0  0  0  0  0  0  0  0
   11.0199   46.0480   33.4569 N   0  0  0  0  0  0  0  0  0  0  0  0
    9.7500   44.8509   31.6926 C   0  0  0  0  0  0  0  0  0  0  0  0
    8.7941   45.8420   31.0875 C   0  0  0  0  0  0  0  0  0  0  0  0
    7.4077   45.6008   31.0997 C   0  0  0  0  0  0  0  0  0  0  0  0
    9.2830   46.9887   30.4446 C   0  0  0  0  0  0  0  0  0  0  0  0
    6.5286   46.5012   30.4831 C   0  0  0  0  0  0  0  0  0  0  0  0
    8.4038   47.8895   29.8313 C   0  0  0  0  0  0  0  0  0  0  0  0
    7.0138   47.6535   29.8490 C   0  0  0  0  0  0  0  0  0  0  0  0
    6.0820   48.5166   29.2487 O   0  0  0  0  0  0  0  0  0  0  0  0
    6.3591   49.8048   28.6967 C   0  0  2  0  0  0  0  0  0  0  0  0
    6.6617   50.8292   29.7992 C   0  0  0  0  0  0  0  0  0  0  0  0
    5.1904   50.2534   27.8324 C   0  0  0  0  0  0  0  0  0  0  0  0
    5.4404   50.4982   26.4584 C   0  0  0  0  0  0  0  0  0  0  0  0
    3.8666   50.4813   28.3496 C   0  0  0  0  0  0  0  0  0  0  0  0
    4.4033   50.9681   25.6639 C   0  0  0  0  0  0  0  0  0  0  0  0
    2.8570   50.9761   27.4938 C   0  0  0  0  0  0  0  0  0  0  0  0
    3.5282   50.2419   29.7234 N   0  0  0  0  0  0  0  0  0  0  0  0
    4.4249   51.2754   24.3169 O   0  0  0  0  0  0  0  0  0  0  0  0
    3.1675   51.2000   26.1602 C   0  0  0  0  0  0  0  0  0  0  0  0
    2.7311   51.1425   30.3914 O   0  0  0  0  0  0  0  0  0  0  0  0
    3.7255   49.1214   30.2343 O   0  0  0  0  0  0  0  0  0  0  0  0
    3.1160   51.7288   23.9456 C   0  0  0  0  0  0  0  0  0  0  0  0
    2.3444   51.6651   25.1527 O   0  0  0  0  0  0  0  0  0  0  0  0
    8.8113   40.1833   34.2130 O   0  0  0  0  0  0  0  0  0  0  0  0
   11.2399   40.7932   33.3693 O   0  0  0  0  0  0  0  0  0  0  0  0
   10.9143   40.6896   31.9973 C   0  0  0  0  0  0  0  0  0  0  0  0
   11.5261   39.3884   31.4375 C   0  0  0  0  0  0  0  0  0  0  0  0
   12.7504   39.0887   32.0815 O   0  0  0  0  0  0  0  0  0  0  0  0
   10.6115   38.1909   31.6460 C   0  0  0  0  0  0  0  0  0  0  0  0
   12.9357   37.6812   32.0303 C   0  0  0  0  0  0  0  0  0  0  0  0
    9.6145   38.0858   30.6533 O   0  0  0  0  0  0  0  0  0  0  0  0
   11.5769   37.0148   31.7012 C   0  0  0  0  0  0  0  0  0  0  0  0
   13.4849   37.2112   33.3247 N   0  0  0  0  0  0  0  0  0  0  0  0
   11.6193   36.3260   30.4724 O   0  0  0  0  0  0  0  0  0  0  0  0
   14.4802   36.3313   33.5730 C   0  0  0  0  0  0  0  0  0  0  0  0
   13.1141   37.6268   34.5697 C   0  0  0  0  0  0  0  0  0  0  0  0
   15.2075   35.6151   32.6741 N   0  0  0  0  0  0  0  0  0  0  0  0
   14.6761   36.2300   34.9184 C   0  0  0  0  0  0  0  0  0  0  0  0
   13.8220   37.0445   35.5789 N   0  0  0  0  0  0  0  0  0  0  0  0
   16.1642   34.7600   33.1547 C   0  0  0  0  0  0  0  0  0  0  0  0
   15.6529   35.3503   35.4132 C   0  0  0  0  0  0  0  0  0  0  0  0
   16.3797   34.6314   34.5042 N   0  0  0  0  0  0  0  0  0  0  0  0
   15.9004   35.1930   36.8090 N   0  0  0  0  0  0  0  0  0  0  0  0
    9.0100   45.4349   33.6674 H   0  0  0  0  0  0  0  0  0  0  0  0
   11.9349   45.6932   33.0925 H   0  0  0  0  0  0  0  0  0  0  0  0
   11.1136   46.1992   34.4882 H   0  0  0  0  0  0  0  0  0  0  0  0
    9.3507   43.8344   31.4765 H   0  0  0  0  0  0  0  0  0  0  0  0
   10.7303   44.8922   31.1677 H   0  0  0  0  0  0  0  0  0  0  0  0
    7.0110   44.7154   31.5812 H   0  0  0  0  0  0  0  0  0  0  0  0
   10.3476   47.1859   30.4137 H   0  0  0  0  0  0  0  0  0  0  0  0
    5.4642   46.3032   30.5001 H   0  0  0  0  0  0  0  0  0  0  0  0
    8.8226   48.7556   29.3410 H   0  0  0  0  0  0  0  0  0  0  0  0
    7.2633   49.7278   28.0548 H   0  0  0  0  0  0  0  0  0  0  0  0
    5.8684   50.8398   30.5726 H   0  0  0  0  0  0  0  0  0  0  0  0
    7.6193   50.5851   30.3021 H   0  0  0  0  0  0  0  0  0  0  0  0
    6.7550   51.8459   29.3611 H   0  0  0  0  0  0  0  0  0  0  0  0
    6.4178   50.3411   26.0199 H   0  0  0  0  0  0  0  0  0  0  0  0
    1.8545   51.1638   27.8567 H   0  0  0  0  0  0  0  0  0  0  0  0
    2.6806   51.0569   23.1765 H   0  0  0  0  0  0  0  0  0  0  0  0
    3.1624   52.7743   23.5752 H   0  0  0  0  0  0  0  0  0  0  0  0
    9.8234   40.7192   31.7644 H   0  0  0  0  0  0  0  0  0  0  0  0
   11.3782   41.5525   31.4733 H   0  0  0  0  0  0  0  0  0  0  0  0
   11.7283   39.5312   30.3515 H   0  0  0  0  0  0  0  0  0  0  0  0
   10.1127   38.2733   32.6376 H   0  0  0  0  0  0  0  0  0  0  0  0
   13.6692   37.4565   31.2242 H   0  0  0  0  0  0  0  0  0  0  0  0
   10.0533   38.1117   29.7635 H   0  0  0  0  0  0  0  0  0  0  0  0
   11.2607   36.3147   32.5101 H   0  0  0  0  0  0  0  0  0  0  0  0
   12.1496   35.5022   30.6323 H   0  0  0  0  0  0  0  0  0  0  0  0
   12.3301   38.3524   34.7455 H   0  0  0  0  0  0  0  0  0  0  0  0
   16.7563   34.1781   32.4619 H   0  0  0  0  0  0  0  0  0  0  0  0
   16.6350   34.5298   37.1416 H   0  0  0  0  0  0  0  0  0  0  0  0
   15.3535   35.7357   37.5139 H   0  0  0  0  0  0  0  0  0  0  0  0
  1  2  2  0
  1  3  1  0
  3  4  1  0
  4  5  1  0
  6  1  1  0
  7  6  1  0
  6  8  1  0
  8  9  1  0
  9 10  2  0
 11  9  1  0
 10 12  1  0
 13 11  2  0
 12 14  2  0
 14 13  1  0
 14 15  1  0
 15 16  1  0
 16 17  1  0
 16 18  1  0
 18 19  2  0
 20 18  1  0
 19 21  1  0
 22 20  2  0
 20 23  1  0
 21 24  1  0
 21 25  2  0
 25 22  1  0
 23 26  1  0
 23 27  2  0
 24 28  1  0
 25 29  1  0
 28 29  1  0
  4 30  2  0
  4 31  1  0
 32 31  1  0
 32 33  1  0
 33 34  1  0
 33 35  1  0
 34 36  1  0
 35 37  1  0
 35 38  1  0
 38 36  1  0
 36 39  1  0
 38 40  1  0
 41 39  1  0
 42 39  1  0
 43 41  2  0
 41 44  1  0
 45 42  2  0
 46 43  1  0
 44 47  2  0
 44 45  1  0
 48 46  2  0
 48 47  1  0
 47 49  1  0
  6 50  1  1
  7 51  1  0
  7 52  1  0
  8 53  1  0
  8 54  1  0
 10 55  1  0
 11 56  1  0
 12 57  1  0
 13 58  1  0
 16 59  1  6
 17 60  1  0
 17 61  1  0
 17 62  1  0
 19 63  1  0
 22 64  1  0
 28 65  1  0
 28 66  1  0
 32 67  1  0
 32 68  1  0
 33 69  1  0
 35 70  1  0
 36 71  1  0
 37 72  1  0
 38 73  1  0
 40 74  1  0
 42 75  1  0
 46 76  1  0
 49 77  1  0
 49 78  1  0
M  CHG  3   5  -1  23   1  26  -1
M  END
>  <EmbedRMS>  (31) 
0.0825103127539

$$$$

     RDKit          3D

 78 83  0  0  0  0  0  0  0  0999 V2000
   10.2840   43.7625   33.8277 C   0  0  0  0  0  0  0  0  0  0  0  0
   11.4104   43.5863   34.3768 O   0  0  0  0  0  0  0  0  0  0  0  0
    9.3634   42.7233   33.7352 O   0  0  0  0  0  0  0  0  0  0  0  0
    9.8899   41.2246   34.2940 P   0  0  0  0  0  0  0  0  0  0  0  0
   10.3724   41.4544   35.8837 O   0  0  0  0  0  0  0  0  0  0  0  0
    9.9548   45.0698   33.2066 C   0  0  1  0  0  0  0  0  0  0  0  0
   11.0198   46.0480   33.4569 N   0  0  0  0  0  0  0  0  0  0  0  0
    9.7500   44.8508   31.6926 C   0  0  0  0  0  0  0  0  0  0  0  0
    8.7941   45.8419   31.0875 C   0  0  0  0  0  0  0  0  0  0  0  0
    7.4076   45.6009   31.0999 C   0  0  0  0  0  0  0  0  0  0  0  0
    9.2830   46.9887   30.4448 C   0  0  0  0  0  0  0  0  0  0  0  0
    6.5285   46.5014   30.4833 C   0  0  0  0  0  0  0  0  0  0  0  0
    8.4039   47.8895   29.8315 C   0  0  0  0  0  0  0  0  0  0  0  0
    7.0138   47.6532   29.8483 C   0  0  0  0  0  0  0  0  0  0  0  0
    6.0824   48.5158   29.2463 O   0  0  0  0  0  0  0  0  0  0  0  0
    6.3691   49.7876   28.6584 C   0  0  2  0  0  0  0  0  0  0  0  0
    6.6464   50.8308   29.7493 C   0  0  0  0  0  0  0  0  0  0  0  0
    5.1817   50.2113   27.8120 C   0  0  0  0  0  0  0  0  0  0  0  0
    3.9141   50.3284   28.4358 C   0  0  0  0  0  0  0  0  0  0  0  0
    5.3058   50.5350   26.4191 C   0  0  0  0  0  0  0  0  0  0  0  0
    2.8437   50.7956   27.6845 C   0  0  0  0  0  0  0  0  0  0  0  0
    4.1854   51.0232   25.7106 C   0  0  0  0  0  0  0  0  0  0  0  0
    6.5380   50.3564   25.7073 N   0  0  0  0  0  0  0  0  0  0  0  0
    1.5368   50.9977   28.0846 O   0  0  0  0  0  0  0  0  0  0  0  0
    2.9750   51.1343   26.3815 C   0  0  0  0  0  0  0  0  0  0  0  0
    6.9426   51.3091   24.8011 O   0  0  0  0  0  0  0  0  0  0  0  0
    7.0870   49.2355   25.6880 O   0  0  0  0  0  0  0  0  0  0  0  0
    0.8015   51.4956   26.9584 C   0  0  0  0  0  0  0  0  0  0  0  0
    1.7577   51.5673   25.8919 O   0  0  0  0  0  0  0  0  0  0  0  0
    8.8119   40.1831   34.2121 O   0  0  0  0  0  0  0  0  0  0  0  0
   11.2416   40.7932   33.3699 O   0  0  0  0  0  0  0  0  0  0  0  0
   10.9186   40.6909   31.9972 C   0  0  0  0  0  0  0  0  0  0  0  0
   11.5172   39.3814   31.4407 C   0  0  0  0  0  0  0  0  0  0  0  0
   12.7493   39.0855   32.0727 O   0  0  0  0  0  0  0  0  0  0  0  0
   10.6023   38.1907   31.6665 C   0  0  0  0  0  0  0  0  0  0  0  0
   12.9319   37.6781   32.0281 C   0  0  0  0  0  0  0  0  0  0  0  0
    9.6392   38.0797   30.6452 O   0  0  0  0  0  0  0  0  0  0  0  0
   11.5715   37.0165   31.7056 C   0  0  0  0  0  0  0  0  0  0  0  0
   13.4847   37.2121   33.3235 N   0  0  0  0  0  0  0  0  0  0  0  0
   11.6187   36.3383   30.4694 O   0  0  0  0  0  0  0  0  0  0  0  0
   14.4801   36.3321   33.5724 C   0  0  0  0  0  0  0  0  0  0  0  0
   13.1137   37.6275   34.5687 C   0  0  0  0  0  0  0  0  0  0  0  0
   15.2073   35.6153   32.6738 N   0  0  0  0  0  0  0  0  0  0  0  0
   14.6759   36.2308   34.9179 C   0  0  0  0  0  0  0  0  0  0  0  0
   13.8216   37.0452   35.5780 N   0  0  0  0  0  0  0  0  0  0  0  0
   16.1640   34.7602   33.1546 C   0  0  0  0  0  0  0  0  0  0  0  0
   15.6526   35.3508   35.4129 C   0  0  0  0  0  0  0  0  0  0  0  0
   16.3794   34.6317   34.5041 N   0  0  0  0  0  0  0  0  0  0  0  0
   15.8999   35.1935   36.8088 N   0  0  0  0  0  0  0  0  0  0  0  0
    9.0099   45.4347   33.6674 H   0  0  0  0  0  0  0  0  0  0  0  0
   11.1135   46.1992   34.4882 H   0  0  0  0  0  0  0  0  0  0  0  0
   11.9348   45.6932   33.0924 H   0  0  0  0  0  0  0  0  0  0  0  0
    9.3506   43.8343   31.4765 H   0  0  0  0  0  0  0  0  0  0  0  0
   10.7302   44.8921   31.1677 H   0  0  0  0  0  0  0  0  0  0  0  0
    7.0110   44.7155   31.5813 H   0  0  0  0  0  0  0  0  0  0  0  0
   10.3476   47.1863   30.4147 H   0  0  0  0  0  0  0  0  0  0  0  0
    5.4643   46.3031   30.5000 H   0  0  0  0  0  0  0  0  0  0  0  0
    8.8230   48.7573   29.3441 H   0  0  0  0  0  0  0  0  0  0  0  0
    7.2783   49.7114   28.0349 H   0  0  0  0  0  0  0  0  0  0  0  0
    5.8084   50.8787   30.4759 H   0  0  0  0  0  0  0  0  0  0  0  0
    6.7873   51.8333   29.2914 H   0  0  0  0  0  0  0  0  0  0  0  0
    7.5699   50.5743   30.3072 H   0  0  0  0  0  0  0  0  0  0  0  0
    3.7699   50.0754   29.4783 H   0  0  0  0  0  0  0  0  0  0  0  0
    4.2517   51.2809   24.6614 H   0  0  0  0  0  0  0  0  0  0  0  0
   -0.0165   50.7934   26.6930 H   0  0  0  0  0  0  0  0  0  0  0  0
    0.3977   52.5058   27.1795 H   0  0  0  0  0  0  0  0  0  0  0  0
    9.8300   40.7410   31.7611 H   0  0  0  0  0  0  0  0  0  0  0  0
   11.3971   41.5459   31.4735 H   0  0  0  0  0  0  0  0  0  0  0  0
   11.6974   39.5067   30.3480 H   0  0  0  0  0  0  0  0  0  0  0  0
   10.1077   38.2647   32.6645 H   0  0  0  0  0  0  0  0  0  0  0  0
   13.6621   37.4467   31.2208 H   0  0  0  0  0  0  0  0  0  0  0  0
    8.8974   38.6943   30.8831 H   0  0  0  0  0  0  0  0  0  0  0  0
   11.2806   36.3073   32.5170 H   0  0  0  0  0  0  0  0  0  0  0  0
   10.8493   35.7110   30.4586 H   0  0  0  0  0  0  0  0  0  0  0  0
   12.3290   38.3523   34.7444 H   0  0  0  0  0  0  0  0  0  0  0  0
   16.7559   34.1780   32.4619 H   0  0  0  0  0  0  0  0  0  0  0  0
   16.6344   34.5301   37.1414 H   0  0  0  0  0  0  0  0  0  0  0  0
   15.3531   35.7363   37.5137 H   0  0  0  0  0  0  0  0  0  0  0  0
  1  2  2  0
  1  3  1  0
  3  4  1  0
  4  5  1  0
  6  1  1  0
  7  6  1  0
  6  8  1  0
  8  9  1  0
  9 10  2  0
 11  9  1  0
 10 12  1  0
 13 11  2  0
 12 14  2  0
 14 13  1  0
 14 15  1  0
 15 16  1  0
 16 17  1  0
 16 18  1  0
 18 19  2  0
 20 18  1  0
 19 21  1  0
 22 20  2  0
 20 23  1  0
 21 24  1  0
 21 25  2  0
 25 22  1  0
 23 26  1  0
 23 27  2  0
 24 28  1  0
 25 29  1  0
 28 29  1  0
  4 30  2  0
  4 31  1  0
 32 31  1  0
 32 33  1  0
 33 34  1  0
 33 35  1  0
 34 36  1  0
 35 37  1  0
 35 38  1  0
 38 36  1  0
 36 39  1  0
 38 40  1  0
 41 39  1  0
 42 39  1  0
 43 41  2  0
 41 44  1  0
 45 42  2  0
 46 43  1  0
 44 47  2  0
 44 45  1  0
 48 46  2  0
 48 47  1  0
 47 49  1  0
  6 50  1  1
  7 51  1  0
  7 52  1  0
  8 53  1  0
  8 54  1  0
 10 55  1  0
 11 56  1  0
 12 57  1  0
 13 58  1  0
 16 59  1  6
 17 60  1  0
 17 61  1  0
 17 62  1  0
 19 63  1  0
 22 64  1  0
 28 65  1  0
 28 66  1  0
 32 67  1  0
 32 68  1  0
 33 69  1  0
 35 70  1  0
 36 71  1  0
 37 72  1  0
 38 73  1  0
 40 74  1  0
 42 75  1  0
 46 76  1  0
 49 77  1  0
 49 78  1  0
M  CHG  3   5  -1  23   1  26  -1
M  END
>  <EmbedRMS>  (32) 
0.0838146349009

$$$$

     RDKit          3D

 78 83  0  0  0  0  0  0  0  0999 V2000
   10.2803   43.7664   33.8250 C   0  0  0  0  0  0  0  0  0  0  0  0
   11.4110   43.5918   34.3666 O   0  0  0  0  0  0  0  0  0  0  0  0
    9.3617   42.7249   33.7345 O   0  0  0  0  0  0  0  0  0  0  0  0
    9.8898   41.2266   34.2939 P   0  0  0  0  0  0  0  0  0  0  0  0
   10.3736   41.4567   35.8831 O   0  0  0  0  0  0  0  0  0  0  0  0
    9.9458   45.0735   33.2111 C   0  0  1  0  0  0  0  0  0  0  0  0
   11.0265   46.0291   33.4703 N   0  0  0  0  0  0  0  0  0  0  0  0
    9.7532   44.8536   31.6949 C   0  0  0  0  0  0  0  0  0  0  0  0
    8.7954   45.8409   31.0847 C   0  0  0  0  0  0  0  0  0  0  0  0
    7.4084   45.6010   31.1012 C   0  0  0  0  0  0  0  0  0  0  0  0
    9.2831   46.9877   30.4402 C   0  0  0  0  0  0  0  0  0  0  0  0
    6.5281   46.5018   30.4861 C   0  0  0  0  0  0  0  0  0  0  0  0
    8.4028   47.8894   29.8310 C   0  0  0  0  0  0  0  0  0  0  0  0
    7.0139   47.6505   29.8465 C   0  0  0  0  0  0  0  0  0  0  0  0
    6.0876   48.5176   29.2440 O   0  0  0  0  0  0  0  0  0  0  0  0
    6.4199   49.6781   28.4768 C   0  0  2  0  0  0  0  0  0  0  0  0
    5.1412   50.4664   28.1995 C   0  0  0  0  0  0  0  0  0  0  0  0
    7.0798   49.2810   27.1668 C   0  0  0  0  0  0  0  0  0  0  0  0
    6.5340   48.1967   26.4366 C   0  0  0  0  0  0  0  0  0  0  0  0
    8.2620   49.9311   26.6782 C   0  0  0  0  0  0  0  0  0  0  0  0
    7.1892   47.7733   25.2881 C   0  0  0  0  0  0  0  0  0  0  0  0
    8.8945   49.4444   25.5119 C   0  0  0  0  0  0  0  0  0  0  0  0
    8.8208   51.0800   27.3339 N   0  0  0  0  0  0  0  0  0  0  0  0
    6.8490   46.7398   24.4367 O   0  0  0  0  0  0  0  0  0  0  0  0
    8.3224   48.3671   24.8484 C   0  0  0  0  0  0  0  0  0  0  0  0
   10.1852   51.2555   27.3597 O   0  0  0  0  0  0  0  0  0  0  0  0
    8.0857   52.0309   27.6702 O   0  0  0  0  0  0  0  0  0  0  0  0
    7.8331   46.6833   23.3947 C   0  0  0  0  0  0  0  0  0  0  0  0
    8.7551   47.7398   23.6960 O   0  0  0  0  0  0  0  0  0  0  0  0
    8.8124   40.1842   34.2133 O   0  0  0  0  0  0  0  0  0  0  0  0
   11.2403   40.7944   33.3689 O   0  0  0  0  0  0  0  0  0  0  0  0
   10.9143   40.6899   31.9971 C   0  0  0  0  0  0  0  0  0  0  0  0
   11.5261   39.3885   31.4376 C   0  0  0  0  0  0  0  0  0  0  0  0
   12.7504   39.0889   32.0816 O   0  0  0  0  0  0  0  0  0  0  0  0
   10.6115   38.1909   31.6461 C   0  0  0  0  0  0  0  0  0  0  0  0
   12.9357   37.6813   32.0303 C   0  0  0  0  0  0  0  0  0  0  0  0
    9.6146   38.0857   30.6535 O   0  0  0  0  0  0  0  0  0  0  0  0
   11.5770   37.0148   31.7012 C   0  0  0  0  0  0  0  0  0  0  0  0
   13.4848   37.2112   33.3247 N   0  0  0  0  0  0  0  0  0  0  0  0
   11.6193   36.3260   30.4724 O   0  0  0  0  0  0  0  0  0  0  0  0
   14.4801   36.3313   33.5730 C   0  0  0  0  0  0  0  0  0  0  0  0
   13.1141   37.6268   34.5697 C   0  0  0  0  0  0  0  0  0  0  0  0
   15.2074   35.6152   32.6741 N   0  0  0  0  0  0  0  0  0  0  0  0
   14.6760   36.2300   34.9185 C   0  0  0  0  0  0  0  0  0  0  0  0
   13.8220   37.0445   35.5789 N   0  0  0  0  0  0  0  0  0  0  0  0
   16.1642   34.7601   33.1546 C   0  0  0  0  0  0  0  0  0  0  0  0
   15.6530   35.3503   35.4132 C   0  0  0  0  0  0  0  0  0  0  0  0
   16.3798   34.6315   34.5041 N   0  0  0  0  0  0  0  0  0  0  0  0
   15.9005   35.1930   36.8091 N   0  0  0  0  0  0  0  0  0  0  0  0
    8.9996   45.4381   33.6722 H   0  0  0  0  0  0  0  0  0  0  0  0
   10.7761   46.9368   33.0154 H   0  0  0  0  0  0  0  0  0  0  0  0
   11.0502   46.2277   34.4976 H   0  0  0  0  0  0  0  0  0  0  0  0
   10.7402   44.9064   31.1832 H   0  0  0  0  0  0  0  0  0  0  0  0
    9.3629   43.8350   31.4716 H   0  0  0  0  0  0  0  0  0  0  0  0
    7.0127   44.7168   31.5855 H   0  0  0  0  0  0  0  0  0  0  0  0
   10.3472   47.1867   30.4079 H   0  0  0  0  0  0  0  0  0  0  0  0
    5.4638   46.3044   30.5046 H   0  0  0  0  0  0  0  0  0  0  0  0
    8.8154   48.7653   29.3517 H   0  0  0  0  0  0  0  0  0  0  0  0
    7.0809   50.3205   29.0940 H   0  0  0  0  0  0  0  0  0  0  0  0
    4.6785   50.7790   29.1596 H   0  0  0  0  0  0  0  0  0  0  0  0
    4.4102   49.8434   27.6411 H   0  0  0  0  0  0  0  0  0  0  0  0
    5.3692   51.3767   27.6053 H   0  0  0  0  0  0  0  0  0  0  0  0
    5.6393   47.6846   26.7676 H   0  0  0  0  0  0  0  0  0  0  0  0
    9.7909   49.9085   25.1213 H   0  0  0  0  0  0  0  0  0  0  0  0
    8.3546   45.7033   23.4115 H   0  0  0  0  0  0  0  0  0  0  0  0
    7.3574   46.8601   22.4073 H   0  0  0  0  0  0  0  0  0  0  0  0
   11.3779   41.5527   31.4724 H   0  0  0  0  0  0  0  0  0  0  0  0
    9.8233   40.7192   31.7644 H   0  0  0  0  0  0  0  0  0  0  0  0
   11.7284   39.5313   30.3515 H   0  0  0  0  0  0  0  0  0  0  0  0
   10.1128   38.2733   32.6377 H   0  0  0  0  0  0  0  0  0  0  0  0
   13.6694   37.4566   31.2244 H   0  0  0  0  0  0  0  0  0  0  0  0
   10.0532   38.1118   29.7636 H   0  0  0  0  0  0  0  0  0  0  0  0
   11.2607   36.3149   32.5102 H   0  0  0  0  0  0  0  0  0  0  0  0
   12.1497   35.5022   30.6323 H   0  0  0  0  0  0  0  0  0  0  0  0
   12.3301   38.3523   34.7452 H   0  0  0  0  0  0  0  0  0  0  0  0
   16.7561   34.1781   32.4618 H   0  0  0  0  0  0  0  0  0  0  0  0
   16.6351   34.5296   37.1414 H   0  0  0  0  0  0  0  0  0  0  0  0
   15.3537   35.7354   37.5142 H   0  0  0  0  0  0  0  0  0  0  0  0
  1  2  2  0
  1  3  1  0
  3  4  1  0
  4  5  1  0
  6  1  1  0
  7  6  1  0
  6  8  1  0
  8  9  1  0
  9 10  2  0
 11  9  1  0
 10 12  1  0
 13 11  2  0
 12 14  2  0
 14 13  1  0
 14 15  1  0
 15 16  1  0
 16 17  1  0
 16 18  1  0
 18 19  2  0
 20 18  1  0
 19 21  1  0
 22 20  2  0
 20 23  1  0
 21 24  1  0
 21 25  2  0
 25 22  1  0
 23 26  1  0
 23 27  2  0
 24 28  1  0
 25 29  1  0
 28 29  1  0
  4 30  2  0
  4 31  1  0
 32 31  1  0
 32 33  1  0
 33 34  1  0
 33 35  1  0
 34 36  1  0
 35 37  1  0
 35 38  1  0
 38 36  1  0
 36 39  1  0
 38 40  1  0
 41 39  1  0
 42 39  1  0
 43 41  2  0
 41 44  1  0
 45 42  2  0
 46 43  1  0
 44 47  2  0
 44 45  1  0
 48 46  2  0
 48 47  1  0
 47 49  1  0
  6 50  1  1
  7 51  1  0
  7 52  1  0
  8 53  1  0
  8 54  1  0
 10 55  1  0
 11 56  1  0
 12 57  1  0
 13 58  1  0
 16 59  1  1
 17 60  1  0
 17 61  1  0
 17 62  1  0
 19 63  1  0
 22 64  1  0
 28 65  1  0
 28 66  1  0
 32 67  1  0
 32 68  1  0
 33 69  1  0
 35 70  1  0
 36 71  1  0
 37 72  1  0
 38 73  1  0
 40 74  1  0
 42 75  1  0
 46 76  1  0
 49 77  1  0
 49 78  1  0
M  CHG  3   5  -1  23   1  26  -1
M  END
>  <EmbedRMS>  (33) 
0.0814475027945

$$$$

     RDKit          3D

 78 83  0  0  0  0  0  0  0  0999 V2000
   10.2833   43.7665   33.8256 C   0  0  0  0  0  0  0  0  0  0  0  0
   11.4101   43.5933   34.3751 O   0  0  0  0  0  0  0  0  0  0  0  0
    9.3636   42.7259   33.7351 O   0  0  0  0  0  0  0  0  0  0  0  0
    9.8902   41.2271   34.2940 P   0  0  0  0  0  0  0  0  0  0  0  0
   10.3737   41.4568   35.8832 O   0  0  0  0  0  0  0  0  0  0  0  0
    9.9545   45.0695   33.2029 C   0  0  1  0  0  0  0  0  0  0  0  0
   11.0266   46.0327   33.4757 N   0  0  0  0  0  0  0  0  0  0  0  0
    9.7479   44.8478   31.6867 C   0  0  0  0  0  0  0  0  0  0  0  0
    8.7930   45.8392   31.0821 C   0  0  0  0  0  0  0  0  0  0  0  0
    7.4068   45.6001   31.0976 C   0  0  0  0  0  0  0  0  0  0  0  0
    9.2817   46.9875   30.4425 C   0  0  0  0  0  0  0  0  0  0  0  0
    6.5279   46.5027   30.4845 C   0  0  0  0  0  0  0  0  0  0  0  0
    8.4023   47.8915   29.8355 C   0  0  0  0  0  0  0  0  0  0  0  0
    7.0126   47.6539   29.8479 C   0  0  0  0  0  0  0  0  0  0  0  0
    6.0725   48.5321   29.2734 O   0  0  0  0  0  0  0  0  0  0  0  0
    6.3267   49.6410   28.3948 C   0  0  2  0  0  0  0  0  0  0  0  0
    7.1406   49.1800   27.1677 C   0  0  0  0  0  0  0  0  0  0  0  0
    6.9300   50.8536   29.1104 C   0  0  0  0  0  0  0  0  0  0  0  0
    7.1514   50.8167   30.5136 C   0  0  0  0  0  0  0  0  0  0  0  0
    7.2703   52.0539   28.3949 C   0  0  0  0  0  0  0  0  0  0  0  0
    7.7802   51.8947   31.1213 C   0  0  0  0  0  0  0  0  0  0  0  0
    7.9280   53.1115   29.0650 C   0  0  0  0  0  0  0  0  0  0  0  0
    6.9142   52.2355   27.0165 N   0  0  0  0  0  0  0  0  0  0  0  0
    8.1118   52.0544   32.4530 O   0  0  0  0  0  0  0  0  0  0  0  0
    8.1644   52.9876   30.4258 C   0  0  0  0  0  0  0  0  0  0  0  0
    5.6220   52.0034   26.6068 O   0  0  0  0  0  0  0  0  0  0  0  0
    7.6890   52.8390   26.2468 O   0  0  0  0  0  0  0  0  0  0  0  0
    8.7509   53.3301   32.5992 C   0  0  0  0  0  0  0  0  0  0  0  0
    8.7634   53.8936   31.2800 O   0  0  0  0  0  0  0  0  0  0  0  0
    8.8116   40.1859   34.2133 O   0  0  0  0  0  0  0  0  0  0  0  0
   11.2405   40.7938   33.3693 O   0  0  0  0  0  0  0  0  0  0  0  0
   10.9148   40.6898   31.9973 C   0  0  0  0  0  0  0  0  0  0  0  0
   11.5260   39.3883   31.4377 C   0  0  0  0  0  0  0  0  0  0  0  0
   12.7505   39.0885   32.0812 O   0  0  0  0  0  0  0  0  0  0  0  0
   10.6113   38.1909   31.6462 C   0  0  0  0  0  0  0  0  0  0  0  0
   12.9355   37.6809   32.0303 C   0  0  0  0  0  0  0  0  0  0  0  0
    9.6147   38.0860   30.6533 O   0  0  0  0  0  0  0  0  0  0  0  0
   11.5768   37.0145   31.7013 C   0  0  0  0  0  0  0  0  0  0  0  0
   13.4847   37.2110   33.3247 N   0  0  0  0  0  0  0  0  0  0  0  0
   11.6191   36.3253   30.4727 O   0  0  0  0  0  0  0  0  0  0  0  0
   14.4802   36.3313   33.5729 C   0  0  0  0  0  0  0  0  0  0  0  0
   13.1140   37.6267   34.5698 C   0  0  0  0  0  0  0  0  0  0  0  0
   15.2075   35.6149   32.6740 N   0  0  0  0  0  0  0  0  0  0  0  0
   14.6761   36.2300   34.9184 C   0  0  0  0  0  0  0  0  0  0  0  0
   13.8219   37.0443   35.5789 N   0  0  0  0  0  0  0  0  0  0  0  0
   16.1647   34.7603   33.1548 C   0  0  0  0  0  0  0  0  0  0  0  0
   15.6527   35.3503   35.4132 C   0  0  0  0  0  0  0  0  0  0  0  0
   16.3800   34.6317   34.5043 N   0  0  0  0  0  0  0  0  0  0  0  0
   15.9001   35.1931   36.8091 N   0  0  0  0  0  0  0  0  0  0  0  0
    9.0112   45.4314   33.6696 H   0  0  0  0  0  0  0  0  0  0  0  0
   10.7245   46.9687   33.1206 H   0  0  0  0  0  0  0  0  0  0  0  0
   11.8904   45.7672   32.9475 H   0  0  0  0  0  0  0  0  0  0  0  0
   10.7247   44.8825   31.1556 H   0  0  0  0  0  0  0  0  0  0  0  0
    9.3444   43.8322   31.4744 H   0  0  0  0  0  0  0  0  0  0  0  0
    7.0101   44.7149   31.5793 H   0  0  0  0  0  0  0  0  0  0  0  0
   10.3454   47.1898   30.4201 H   0  0  0  0  0  0  0  0  0  0  0  0
    5.4632   46.3077   30.5074 H   0  0  0  0  0  0  0  0  0  0  0  0
    8.8163   48.7840   29.3942 H   0  0  0  0  0  0  0  0  0  0  0  0
    5.3296   49.9551   28.0228 H   0  0  0  0  0  0  0  0  0  0  0  0
    6.9601   48.1028   26.9674 H   0  0  0  0  0  0  0  0  0  0  0  0
    8.2287   49.3412   27.3064 H   0  0  0  0  0  0  0  0  0  0  0  0
    6.8292   49.7319   26.2581 H   0  0  0  0  0  0  0  0  0  0  0  0
    6.8528   49.9805   31.1279 H   0  0  0  0  0  0  0  0  0  0  0  0
    8.2077   54.0199   28.5469 H   0  0  0  0  0  0  0  0  0  0  0  0
    8.1654   53.9765   33.2864 H   0  0  0  0  0  0  0  0  0  0  0  0
    9.7893   53.1994   32.9705 H   0  0  0  0  0  0  0  0  0  0  0  0
   11.3790   41.5524   31.4728 H   0  0  0  0  0  0  0  0  0  0  0  0
    9.8239   40.7191   31.7645 H   0  0  0  0  0  0  0  0  0  0  0  0
   11.7278   39.5309   30.3515 H   0  0  0  0  0  0  0  0  0  0  0  0
   10.1124   38.2731   32.6377 H   0  0  0  0  0  0  0  0  0  0  0  0
   13.6688   37.4558   31.2242 H   0  0  0  0  0  0  0  0  0  0  0  0
   10.0539   38.1114   29.7637 H   0  0  0  0  0  0  0  0  0  0  0  0
   11.2606   36.3148   32.5104 H   0  0  0  0  0  0  0  0  0  0  0  0
   12.1500   35.5016   30.6322 H   0  0  0  0  0  0  0  0  0  0  0  0
   12.3298   38.3521   34.7457 H   0  0  0  0  0  0  0  0  0  0  0  0
   16.7577   34.1791   32.4620 H   0  0  0  0  0  0  0  0  0  0  0  0
   15.3539   35.7359   37.5143 H   0  0  0  0  0  0  0  0  0  0  0  0
   16.6350   34.5303   37.1414 H   0  0  0  0  0  0  0  0  0  0  0  0
  1  2  2  0
  1  3  1  0
  3  4  1  0
  4  5  1  0
  6  1  1  0
  7  6  1  0
  6  8  1  0
  8  9  1  0
  9 10  2  0
 11  9  1  0
 10 12  1  0
 13 11  2  0
 12 14  2  0
 14 13  1  0
 14 15  1  0
 15 16  1  0
 16 17  1  0
 16 18  1  0
 18 19  2  0
 20 18  1  0
 19 21  1  0
 22 20  2  0
 20 23  1  0
 21 24  1  0
 21 25  2  0
 25 22  1  0
 23 26  1  0
 23 27  2  0
 24 28  1  0
 25 29  1  0
 28 29  1  0
  4 30  2  0
  4 31  1  0
 32 31  1  0
 32 33  1  0
 33 34  1  0
 33 35  1  0
 34 36  1  0
 35 37  1  0
 35 38  1  0
 38 36  1  0
 36 39  1  0
 38 40  1  0
 41 39  1  0
 42 39  1  0
 43 41  2  0
 41 44  1  0
 45 42  2  0
 46 43  1  0
 44 47  2  0
 44 45  1  0
 48 46  2  0
 48 47  1  0
 47 49  1  0
  6 50  1  1
  7 51  1  0
  7 52  1  0
  8 53  1  0
  8 54  1  0
 10 55  1  0
 11 56  1  0
 12 57  1  0
 13 58  1  0
 16 59  1  6
 17 60  1  0
 17 61  1  0
 17 62  1  0
 19 63  1  0
 22 64  1  0
 28 65  1  0
 28 66  1  0
 32 67  1  0
 32 68  1  0
 33 69  1  0
 35 70  1  0
 36 71  1  0
 37 72  1  0
 38 73  1  0
 40 74  1  0
 42 75  1  0
 46 76  1  0
 49 77  1  0
 49 78  1  0
M  CHG  3   5  -1  23   1  26  -1
M  END
>  <EmbedRMS>  (34) 
0.0816882256752

$$$$

     RDKit          3D

 78 83  0  0  0  0  0  0  0  0999 V2000
   10.2839   43.7626   33.8277 C   0  0  0  0  0  0  0  0  0  0  0  0
   11.4104   43.5864   34.3768 O   0  0  0  0  0  0  0  0  0  0  0  0
    9.3634   42.7234   33.7352 O   0  0  0  0  0  0  0  0  0  0  0  0
    9.8899   41.2247   34.2940 P   0  0  0  0  0  0  0  0  0  0  0  0
   10.3724   41.4544   35.8837 O   0  0  0  0  0  0  0  0  0  0  0  0
    9.9548   45.0699   33.2064 C   0  0  1  0  0  0  0  0  0  0  0  0
   11.0197   46.0481   33.4568 N   0  0  0  0  0  0  0  0  0  0  0  0
    9.7502   44.8506   31.6924 C   0  0  0  0  0  0  0  0  0  0  0  0
    8.7943   45.8412   31.0869 C   0  0  0  0  0  0  0  0  0  0  0  0
    7.4080   45.6008   31.0997 C   0  0  0  0  0  0  0  0  0  0  0  0
    9.2826   46.9883   30.4451 C   0  0  0  0  0  0  0  0  0  0  0  0
    6.5293   46.5021   30.4842 C   0  0  0  0  0  0  0  0  0  0  0  0
    8.4035   47.8894   29.8329 C   0  0  0  0  0  0  0  0  0  0  0  0
    7.0134   47.6534   29.8470 C   0  0  0  0  0  0  0  0  0  0  0  0
    6.0719   48.5201   29.2615 O   0  0  0  0  0  0  0  0  0  0  0  0
    6.3255   49.7384   28.5486 C   0  0  2  0  0  0  0  0  0  0  0  0
    6.9376   49.4268   27.1736 C   0  0  0  0  0  0  0  0  0  0  0  0
    7.0719   50.7545   29.4153 C   0  0  0  0  0  0  0  0  0  0  0  0
    8.2335   51.4146   28.9284 C   0  0  0  0  0  0  0  0  0  0  0  0
    6.6252   51.0405   30.7527 C   0  0  0  0  0  0  0  0  0  0  0  0
    8.9168   52.2755   29.7764 C   0  0  0  0  0  0  0  0  0  0  0  0
    7.3740   51.9152   31.5717 C   0  0  0  0  0  0  0  0  0  0  0  0
    5.4336   50.4496   31.2991 N   0  0  0  0  0  0  0  0  0  0  0  0
   10.0642   53.0011   29.5189 O   0  0  0  0  0  0  0  0  0  0  0  0
    8.5087   52.5111   31.0427 C   0  0  0  0  0  0  0  0  0  0  0  0
    5.3762   50.1387   32.6382 O   0  0  0  0  0  0  0  0  0  0  0  0
    4.3851   50.3960   30.6246 O   0  0  0  0  0  0  0  0  0  0  0  0
   10.3957   53.7396   30.7025 C   0  0  0  0  0  0  0  0  0  0  0  0
    9.3761   53.3979   31.6511 O   0  0  0  0  0  0  0  0  0  0  0  0
    8.8119   40.1831   34.2120 O   0  0  0  0  0  0  0  0  0  0  0  0
   11.2416   40.7933   33.3699 O   0  0  0  0  0  0  0  0  0  0  0  0
   10.9187   40.6909   31.9972 C   0  0  0  0  0  0  0  0  0  0  0  0
   11.5172   39.3814   31.4407 C   0  0  0  0  0  0  0  0  0  0  0  0
   12.7493   39.0855   32.0727 O   0  0  0  0  0  0  0  0  0  0  0  0
   10.6023   38.1907   31.6665 C   0  0  0  0  0  0  0  0  0  0  0  0
   12.9319   37.6781   32.0281 C   0  0  0  0  0  0  0  0  0  0  0  0
    9.6392   38.0797   30.6452 O   0  0  0  0  0  0  0  0  0  0  0  0
   11.5715   37.0165   31.7056 C   0  0  0  0  0  0  0  0  0  0  0  0
   13.4847   37.2121   33.3235 N   0  0  0  0  0  0  0  0  0  0  0  0
   11.6187   36.3383   30.4694 O   0  0  0  0  0  0  0  0  0  0  0  0
   14.4801   36.3321   33.5724 C   0  0  0  0  0  0  0  0  0  0  0  0
   13.1137   37.6275   34.5687 C   0  0  0  0  0  0  0  0  0  0  0  0
   15.2073   35.6153   32.6738 N   0  0  0  0  0  0  0  0  0  0  0  0
   14.6759   36.2308   34.9179 C   0  0  0  0  0  0  0  0  0  0  0  0
   13.8216   37.0452   35.5781 N   0  0  0  0  0  0  0  0  0  0  0  0
   16.1640   34.7602   33.1546 C   0  0  0  0  0  0  0  0  0  0  0  0
   15.6526   35.3508   35.4129 C   0  0  0  0  0  0  0  0  0  0  0  0
   16.3794   34.6317   34.5041 N   0  0  0  0  0  0  0  0  0  0  0  0
   15.8999   35.1935   36.8088 N   0  0  0  0  0  0  0  0  0  0  0  0
    9.0098   45.4348   33.6670 H   0  0  0  0  0  0  0  0  0  0  0  0
   11.1132   46.1995   34.4880 H   0  0  0  0  0  0  0  0  0  0  0  0
   11.9348   45.6934   33.0925 H   0  0  0  0  0  0  0  0  0  0  0  0
    9.3511   43.8340   31.4764 H   0  0  0  0  0  0  0  0  0  0  0  0
   10.7305   44.8920   31.1676 H   0  0  0  0  0  0  0  0  0  0  0  0
    7.0111   44.7160   31.5820 H   0  0  0  0  0  0  0  0  0  0  0  0
   10.3469   47.1878   30.4177 H   0  0  0  0  0  0  0  0  0  0  0  0
    5.4648   46.3054   30.5047 H   0  0  0  0  0  0  0  0  0  0  0  0
    8.8252   48.7595   29.3587 H   0  0  0  0  0  0  0  0  0  0  0  0
    5.3364   50.1899   28.3237 H   0  0  0  0  0  0  0  0  0  0  0  0
    6.3136   48.6685   26.6548 H   0  0  0  0  0  0  0  0  0  0  0  0
    7.9662   49.0239   27.2595 H   0  0  0  0  0  0  0  0  0  0  0  0
    6.9521   50.3408   26.5424 H   0  0  0  0  0  0  0  0  0  0  0  0
    8.6197   51.2586   27.9319 H   0  0  0  0  0  0  0  0  0  0  0  0
    7.0672   52.1402   32.5850 H   0  0  0  0  0  0  0  0  0  0  0  0
   10.3748   54.8298   30.4935 H   0  0  0  0  0  0  0  0  0  0  0  0
   11.3918   53.4297   31.0823 H   0  0  0  0  0  0  0  0  0  0  0  0
   11.3972   41.5459   31.4735 H   0  0  0  0  0  0  0  0  0  0  0  0
    9.8300   40.7411   31.7610 H   0  0  0  0  0  0  0  0  0  0  0  0
   11.6974   39.5067   30.3480 H   0  0  0  0  0  0  0  0  0  0  0  0
   10.1077   38.2647   32.6645 H   0  0  0  0  0  0  0  0  0  0  0  0
   13.6621   37.4467   31.2208 H   0  0  0  0  0  0  0  0  0  0  0  0
    8.8974   38.6943   30.8831 H   0  0  0  0  0  0  0  0  0  0  0  0
   11.2806   36.3073   32.5170 H   0  0  0  0  0  0  0  0  0  0  0  0
   10.8492   35.7110   30.4586 H   0  0  0  0  0  0  0  0  0  0  0  0
   12.3290   38.3523   34.7444 H   0  0  0  0  0  0  0  0  0  0  0  0
   16.7559   34.1780   32.4619 H   0  0  0  0  0  0  0  0  0  0  0  0
   16.6344   34.5301   37.1414 H   0  0  0  0  0  0  0  0  0  0  0  0
   15.3532   35.7363   37.5137 H   0  0  0  0  0  0  0  0  0  0  0  0
  1  2  2  0
  1  3  1  0
  3  4  1  0
  4  5  1  0
  6  1  1  0
  7  6  1  0
  6  8  1  0
  8  9  1  0
  9 10  2  0
 11  9  1  0
 10 12  1  0
 13 11  2  0
 12 14  2  0
 14 13  1  0
 14 15  1  0
 15 16  1  0
 16 17  1  0
 16 18  1  0
 18 19  2  0
 20 18  1  0
 19 21  1  0
 22 20  2  0
 20 23  1  0
 21 24  1  0
 21 25  2  0
 25 22  1  0
 23 26  1  0
 23 27  2  0
 24 28  1  0
 25 29  1  0
 28 29  1  0
  4 30  2  0
  4 31  1  0
 32 31  1  0
 32 33  1  0
 33 34  1  0
 33 35  1  0
 34 36  1  0
 35 37  1  0
 35 38  1  0
 38 36  1  0
 36 39  1  0
 38 40  1  0
 41 39  1  0
 42 39  1  0
 43 41  2  0
 41 44  1  0
 45 42  2  0
 46 43  1  0
 44 47  2  0
 44 45  1  0
 48 46  2  0
 48 47  1  0
 47 49  1  0
  6 50  1  1
  7 51  1  0
  7 52  1  0
  8 53  1  0
  8 54  1  0
 10 55  1  0
 11 56  1  0
 12 57  1  0
 13 58  1  0
 16 59  1  6
 17 60  1  0
 17 61  1  0
 17 62  1  0
 19 63  1  0
 22 64  1  0
 28 65  1  0
 28 66  1  0
 32 67  1  0
 32 68  1  0
 33 69  1  0
 35 70  1  0
 36 71  1  0
 37 72  1  0
 38 73  1  0
 40 74  1  0
 42 75  1  0
 46 76  1  0
 49 77  1  0
 49 78  1  0
M  CHG  3   5  -1  23   1  26  -1
M  END
>  <EmbedRMS>  (35) 
0.0838275871505

$$$$

     RDKit          3D

 78 83  0  0  0  0  0  0  0  0999 V2000
   10.2835   43.7661   33.8257 C   0  0  0  0  0  0  0  0  0  0  0  0
   11.4102   43.5930   34.3753 O   0  0  0  0  0  0  0  0  0  0  0  0
    9.3638   42.7255   33.7349 O   0  0  0  0  0  0  0  0  0  0  0  0
    9.8907   41.2265   34.2934 P   0  0  0  0  0  0  0  0  0  0  0  0
   10.3743   41.4557   35.8828 O   0  0  0  0  0  0  0  0  0  0  0  0
    9.9547   45.0695   33.2037 C   0  0  1  0  0  0  0  0  0  0  0  0
   11.0274   46.0321   33.4757 N   0  0  0  0  0  0  0  0  0  0  0  0
    9.7465   44.8481   31.6878 C   0  0  0  0  0  0  0  0  0  0  0  0
    8.7923   45.8409   31.0848 C   0  0  0  0  0  0  0  0  0  0  0  0
    7.4058   45.6014   31.0989 C   0  0  0  0  0  0  0  0  0  0  0  0
    9.2821   46.9875   30.4423 C   0  0  0  0  0  0  0  0  0  0  0  0
    6.5272   46.5027   30.4832 C   0  0  0  0  0  0  0  0  0  0  0  0
    8.4034   47.8897   29.8307 C   0  0  0  0  0  0  0  0  0  0  0  0
    7.0132   47.6542   29.8484 C   0  0  0  0  0  0  0  0  0  0  0  0
    6.0826   48.5188   29.2480 O   0  0  0  0  0  0  0  0  0  0  0  0
    6.3727   49.7897   28.6573 C   0  0  2  0  0  0  0  0  0  0  0  0
    6.6485   50.8291   29.7498 C   0  0  0  0  0  0  0  0  0  0  0  0
    5.1866   50.2294   27.8201 C   0  0  0  0  0  0  0  0  0  0  0  0
    3.8850   50.0843   28.3616 C   0  0  0  0  0  0  0  0  0  0  0  0
    5.3382   50.7461   26.4901 C   0  0  0  0  0  0  0  0  0  0  0  0
    2.7946   50.4149   27.5679 C   0  0  0  0  0  0  0  0  0  0  0  0
    4.1892   51.0499   25.7236 C   0  0  0  0  0  0  0  0  0  0  0  0
    6.6334   50.9924   25.9201 N   0  0  0  0  0  0  0  0  0  0  0  0
    1.4509   50.3436   27.8814 O   0  0  0  0  0  0  0  0  0  0  0  0
    2.9401   50.8719   26.3031 C   0  0  0  0  0  0  0  0  0  0  0  0
    7.5804   51.6889   26.6347 O   0  0  0  0  0  0  0  0  0  0  0  0
    6.8296   50.7837   24.7050 O   0  0  0  0  0  0  0  0  0  0  0  0
    0.7060   50.7859   26.7384 C   0  0  0  0  0  0  0  0  0  0  0  0
    1.6957   51.1139   25.7536 O   0  0  0  0  0  0  0  0  0  0  0  0
    8.8123   40.1850   34.2127 O   0  0  0  0  0  0  0  0  0  0  0  0
   11.2407   40.7945   33.3670 O   0  0  0  0  0  0  0  0  0  0  0  0
   10.9134   40.6866   31.9954 C   0  0  0  0  0  0  0  0  0  0  0  0
   11.5167   39.3787   31.4404 C   0  0  0  0  0  0  0  0  0  0  0  0
   12.7486   39.0849   32.0734 O   0  0  0  0  0  0  0  0  0  0  0  0
   10.6039   38.1884   31.6669 C   0  0  0  0  0  0  0  0  0  0  0  0
   12.9329   37.6776   32.0284 C   0  0  0  0  0  0  0  0  0  0  0  0
    9.6374   38.0938   30.6484 O   0  0  0  0  0  0  0  0  0  0  0  0
   11.5737   37.0141   31.7055 C   0  0  0  0  0  0  0  0  0  0  0  0
   13.4853   37.2120   33.3238 N   0  0  0  0  0  0  0  0  0  0  0  0
   11.6210   36.3379   30.4683 O   0  0  0  0  0  0  0  0  0  0  0  0
   14.4804   36.3319   33.5726 C   0  0  0  0  0  0  0  0  0  0  0  0
   13.1141   37.6275   34.5689 C   0  0  0  0  0  0  0  0  0  0  0  0
   15.2075   35.6152   32.6740 N   0  0  0  0  0  0  0  0  0  0  0  0
   14.6761   36.2306   34.9181 C   0  0  0  0  0  0  0  0  0  0  0  0
   13.8218   37.0451   35.5783 N   0  0  0  0  0  0  0  0  0  0  0  0
   16.1642   34.7600   33.1548 C   0  0  0  0  0  0  0  0  0  0  0  0
   15.6527   35.3506   35.4131 C   0  0  0  0  0  0  0  0  0  0  0  0
   16.3795   34.6315   34.5043 N   0  0  0  0  0  0  0  0  0  0  0  0
   15.9001   35.1933   36.8090 N   0  0  0  0  0  0  0  0  0  0  0  0
    9.0121   45.4317   33.6716 H   0  0  0  0  0  0  0  0  0  0  0  0
   11.8906   45.7658   32.9470 H   0  0  0  0  0  0  0  0  0  0  0  0
   10.7260   46.9687   33.1213 H   0  0  0  0  0  0  0  0  0  0  0  0
   10.7229   44.8814   31.1558 H   0  0  0  0  0  0  0  0  0  0  0  0
    9.3414   43.8330   31.4764 H   0  0  0  0  0  0  0  0  0  0  0  0
    7.0085   44.7164   31.5805 H   0  0  0  0  0  0  0  0  0  0  0  0
   10.3469   47.1834   30.4102 H   0  0  0  0  0  0  0  0  0  0  0  0
    5.4627   46.3056   30.5006 H   0  0  0  0  0  0  0  0  0  0  0  0
    8.8220   48.7581   29.3438 H   0  0  0  0  0  0  0  0  0  0  0  0
    7.2660   49.6823   28.0114 H   0  0  0  0  0  0  0  0  0  0  0  0
    5.7860   50.8995   30.4463 H   0  0  0  0  0  0  0  0  0  0  0  0
    7.5478   50.5509   30.3359 H   0  0  0  0  0  0  0  0  0  0  0  0
    6.8263   51.8270   29.2959 H   0  0  0  0  0  0  0  0  0  0  0  0
    3.7275   49.7081   29.3646 H   0  0  0  0  0  0  0  0  0  0  0  0
    4.2699   51.4386   24.7166 H   0  0  0  0  0  0  0  0  0  0  0  0
    0.1076   51.6852   26.9945 H   0  0  0  0  0  0  0  0  0  0  0  0
    0.0518   49.9695   26.3671 H   0  0  0  0  0  0  0  0  0  0  0  0
    9.8225   40.7225   31.7631 H   0  0  0  0  0  0  0  0  0  0  0  0
   11.3828   41.5438   31.4669 H   0  0  0  0  0  0  0  0  0  0  0  0
   11.6978   39.5037   30.3478 H   0  0  0  0  0  0  0  0  0  0  0  0
   10.1084   38.2786   32.6627 H   0  0  0  0  0  0  0  0  0  0  0  0
   13.6638   37.4472   31.2214 H   0  0  0  0  0  0  0  0  0  0  0  0
    8.9763   37.4191   30.9532 H   0  0  0  0  0  0  0  0  0  0  0  0
   11.2821   36.3054   32.5172 H   0  0  0  0  0  0  0  0  0  0  0  0
   10.8658   35.6935   30.4652 H   0  0  0  0  0  0  0  0  0  0  0  0
   12.3293   38.3523   34.7444 H   0  0  0  0  0  0  0  0  0  0  0  0
   16.7561   34.1778   32.4621 H   0  0  0  0  0  0  0  0  0  0  0  0
   16.6345   34.5300   37.1416 H   0  0  0  0  0  0  0  0  0  0  0  0
   15.3533   35.7361   37.5138 H   0  0  0  0  0  0  0  0  0  0  0  0
  1  2  2  0
  1  3  1  0
  3  4  1  0
  4  5  1  0
  6  1  1  0
  7  6  1  0
  6  8  1  0
  8  9  1  0
  9 10  2  0
 11  9  1  0
 10 12  1  0
 13 11  2  0
 12 14  2  0
 14 13  1  0
 14 15  1  0
 15 16  1  0
 16 17  1  0
 16 18  1  0
 18 19  2  0
 20 18  1  0
 19 21  1  0
 22 20  2  0
 20 23  1  0
 21 24  1  0
 21 25  2  0
 25 22  1  0
 23 26  1  0
 23 27  2  0
 24 28  1  0
 25 29  1  0
 28 29  1  0
  4 30  2  0
  4 31  1  0
 32 31  1  0
 32 33  1  0
 33 34  1  0
 33 35  1  0
 34 36  1  0
 35 37  1  0
 35 38  1  0
 38 36  1  0
 36 39  1  0
 38 40  1  0
 41 39  1  0
 42 39  1  0
 43 41  2  0
 41 44  1  0
 45 42  2  0
 46 43  1  0
 44 47  2  0
 44 45  1  0
 48 46  2  0
 48 47  1  0
 47 49  1  0
  6 50  1  1
  7 51  1  0
  7 52  1  0
  8 53  1  0
  8 54  1  0
 10 55  1  0
 11 56  1  0
 12 57  1  0
 13 58  1  0
 16 59  1  6
 17 60  1  0
 17 61  1  0
 17 62  1  0
 19 63  1  0
 22 64  1  0
 28 65  1  0
 28 66  1  0
 32 67  1  0
 32 68  1  0
 33 69  1  0
 35 70  1  0
 36 71  1  0
 37 72  1  0
 38 73  1  0
 40 74  1  0
 42 75  1  0
 46 76  1  0
 49 77  1  0
 49 78  1  0
M  CHG  3   5  -1  23   1  26  -1
M  END
>  <EmbedRMS>  (36) 
0.0825450950662

$$$$

     RDKit          3D

 78 83  0  0  0  0  0  0  0  0999 V2000
   10.2805   43.7664   33.8249 C   0  0  0  0  0  0  0  0  0  0  0  0
   11.4112   43.5918   34.3665 O   0  0  0  0  0  0  0  0  0  0  0  0
    9.3619   42.7249   33.7344 O   0  0  0  0  0  0  0  0  0  0  0  0
    9.8902   41.2265   34.2931 P   0  0  0  0  0  0  0  0  0  0  0  0
   10.3741   41.4563   35.8824 O   0  0  0  0  0  0  0  0  0  0  0  0
    9.9459   45.0735   33.2111 C   0  0  1  0  0  0  0  0  0  0  0  0
   11.0267   46.0291   33.4705 N   0  0  0  0  0  0  0  0  0  0  0  0
    9.7535   44.8538   31.6948 C   0  0  0  0  0  0  0  0  0  0  0  0
    8.7955   45.8410   31.0846 C   0  0  0  0  0  0  0  0  0  0  0  0
    7.4086   45.6008   31.1011 C   0  0  0  0  0  0  0  0  0  0  0  0
    9.2830   46.9879   30.4403 C   0  0  0  0  0  0  0  0  0  0  0  0
    6.5280   46.5016   30.4861 C   0  0  0  0  0  0  0  0  0  0  0  0
    8.4026   47.8895   29.8312 C   0  0  0  0  0  0  0  0  0  0  0  0
    7.0137   47.6501   29.8462 C   0  0  0  0  0  0  0  0  0  0  0  0
    6.0874   48.5162   29.2423 O   0  0  0  0  0  0  0  0  0  0  0  0
    6.4193   49.6739   28.4708 C   0  0  2  0  0  0  0  0  0  0  0  0
    5.1397   50.4599   28.1899 C   0  0  0  0  0  0  0  0  0  0  0  0
    7.0802   49.2715   27.1631 C   0  0  0  0  0  0  0  0  0  0  0  0
    6.5264   48.1941   26.4288 C   0  0  0  0  0  0  0  0  0  0  0  0
    8.2720   49.9081   26.6833 C   0  0  0  0  0  0  0  0  0  0  0  0
    7.1821   47.7662   25.2822 C   0  0  0  0  0  0  0  0  0  0  0  0
    8.9042   49.4183   25.5171 C   0  0  0  0  0  0  0  0  0  0  0  0
    8.8358   51.0490   27.3487 N   0  0  0  0  0  0  0  0  0  0  0  0
    6.8347   46.7381   24.4272 O   0  0  0  0  0  0  0  0  0  0  0  0
    8.3234   48.3488   24.8486 C   0  0  0  0  0  0  0  0  0  0  0  0
    8.0336   52.1107   27.6972 O   0  0  0  0  0  0  0  0  0  0  0  0
   10.0751   51.1841   27.4127 O   0  0  0  0  0  0  0  0  0  0  0  0
    7.8227   46.6730   23.3895 C   0  0  0  0  0  0  0  0  0  0  0  0
    8.7544   47.7191   23.6968 O   0  0  0  0  0  0  0  0  0  0  0  0
    8.8124   40.1844   34.2129 O   0  0  0  0  0  0  0  0  0  0  0  0
   11.2404   40.7948   33.3669 O   0  0  0  0  0  0  0  0  0  0  0  0
   10.9132   40.6866   31.9953 C   0  0  0  0  0  0  0  0  0  0  0  0
   11.5165   39.3786   31.4405 C   0  0  0  0  0  0  0  0  0  0  0  0
   12.7484   39.0850   32.0736 O   0  0  0  0  0  0  0  0  0  0  0  0
   10.6038   38.1883   31.6670 C   0  0  0  0  0  0  0  0  0  0  0  0
   12.9329   37.6776   32.0284 C   0  0  0  0  0  0  0  0  0  0  0  0
    9.6373   38.0937   30.6484 O   0  0  0  0  0  0  0  0  0  0  0  0
   11.5737   37.0140   31.7056 C   0  0  0  0  0  0  0  0  0  0  0  0
   13.4854   37.2121   33.3238 N   0  0  0  0  0  0  0  0  0  0  0  0
   11.6211   36.3378   30.4684 O   0  0  0  0  0  0  0  0  0  0  0  0
   14.4804   36.3319   33.5726 C   0  0  0  0  0  0  0  0  0  0  0  0
   13.1141   37.6275   34.5689 C   0  0  0  0  0  0  0  0  0  0  0  0
   15.2076   35.6152   32.6739 N   0  0  0  0  0  0  0  0  0  0  0  0
   14.6760   36.2306   34.9181 C   0  0  0  0  0  0  0  0  0  0  0  0
   13.8218   37.0450   35.5782 N   0  0  0  0  0  0  0  0  0  0  0  0
   16.1642   34.7600   33.1547 C   0  0  0  0  0  0  0  0  0  0  0  0
   15.6528   35.3507   35.4131 C   0  0  0  0  0  0  0  0  0  0  0  0
   16.3796   34.6316   34.5042 N   0  0  0  0  0  0  0  0  0  0  0  0
   15.9000   35.1933   36.8090 N   0  0  0  0  0  0  0  0  0  0  0  0
    8.9997   45.4381   33.6723 H   0  0  0  0  0  0  0  0  0  0  0  0
   10.7764   46.9367   33.0155 H   0  0  0  0  0  0  0  0  0  0  0  0
   11.0504   46.2276   34.4980 H   0  0  0  0  0  0  0  0  0  0  0  0
    9.3633   43.8352   31.4714 H   0  0  0  0  0  0  0  0  0  0  0  0
   10.7405   44.9068   31.1832 H   0  0  0  0  0  0  0  0  0  0  0  0
    7.0129   44.7166   31.5855 H   0  0  0  0  0  0  0  0  0  0  0  0
   10.3471   47.1871   30.4080 H   0  0  0  0  0  0  0  0  0  0  0  0
    5.4637   46.3041   30.5047 H   0  0  0  0  0  0  0  0  0  0  0  0
    8.8151   48.7655   29.3524 H   0  0  0  0  0  0  0  0  0  0  0  0
    7.0798   50.3199   29.0849 H   0  0  0  0  0  0  0  0  0  0  0  0
    4.4073   49.8323   27.6385 H   0  0  0  0  0  0  0  0  0  0  0  0
    5.3658   51.3652   27.5873 H   0  0  0  0  0  0  0  0  0  0  0  0
    4.6791   50.7807   29.1483 H   0  0  0  0  0  0  0  0  0  0  0  0
    5.6252   47.6908   26.7552 H   0  0  0  0  0  0  0  0  0  0  0  0
    9.8073   49.8738   25.1318 H   0  0  0  0  0  0  0  0  0  0  0  0
    7.3533   46.8563   22.4003 H   0  0  0  0  0  0  0  0  0  0  0  0
    8.3337   45.6877   23.4067 H   0  0  0  0  0  0  0  0  0  0  0  0
   11.3826   41.5437   31.4666 H   0  0  0  0  0  0  0  0  0  0  0  0
    9.8223   40.7224   31.7630 H   0  0  0  0  0  0  0  0  0  0  0  0
   11.6978   39.5035   30.3479 H   0  0  0  0  0  0  0  0  0  0  0  0
   10.1081   38.2786   32.6626 H   0  0  0  0  0  0  0  0  0  0  0  0
   13.6638   37.4474   31.2214 H   0  0  0  0  0  0  0  0  0  0  0  0
    8.9762   37.4190   30.9533 H   0  0  0  0  0  0  0  0  0  0  0  0
   11.2821   36.3053   32.5172 H   0  0  0  0  0  0  0  0  0  0  0  0
   10.8659   35.6935   30.4651 H   0  0  0  0  0  0  0  0  0  0  0  0
   12.3294   38.3523   34.7444 H   0  0  0  0  0  0  0  0  0  0  0  0
   16.7560   34.1778   32.4621 H   0  0  0  0  0  0  0  0  0  0  0  0
   16.6345   34.5300   37.1417 H   0  0  0  0  0  0  0  0  0  0  0  0
   15.3533   35.7361   37.5139 H   0  0  0  0  0  0  0  0  0  0  0  0
  1  2  2  0
  1  3  1  0
  3  4  1  0
  4  5  1  0
  6  1  1  0
  7  6  1  0
  6  8  1  0
  8  9  1  0
  9 10  2  0
 11  9  1  0
 10 12  1  0
 13 11  2  0
 12 14  2  0
 14 13  1  0
 14 15  1  0
 15 16  1  0
 16 17  1  0
 16 18  1  0
 18 19  2  0
 20 18  1  0
 19 21  1  0
 22 20  2  0
 20 23  1  0
 21 24  1  0
 21 25  2  0
 25 22  1  0
 23 26  1  0
 23 27  2  0
 24 28  1  0
 25 29  1  0
 28 29  1  0
  4 30  2  0
  4 31  1  0
 32 31  1  0
 32 33  1  0
 33 34  1  0
 33 35  1  0
 34 36  1  0
 35 37  1  0
 35 38  1  0
 38 36  1  0
 36 39  1  0
 38 40  1  0
 41 39  1  0
 42 39  1  0
 43 41  2  0
 41 44  1  0
 45 42  2  0
 46 43  1  0
 44 47  2  0
 44 45  1  0
 48 46  2  0
 48 47  1  0
 47 49  1  0
  6 50  1  1
  7 51  1  0
  7 52  1  0
  8 53  1  0
  8 54  1  0
 10 55  1  0
 11 56  1  0
 12 57  1  0
 13 58  1  0
 16 59  1  1
 17 60  1  0
 17 61  1  0
 17 62  1  0
 19 63  1  0
 22 64  1  0
 28 65  1  0
 28 66  1  0
 32 67  1  0
 32 68  1  0
 33 69  1  0
 35 70  1  0
 36 71  1  0
 37 72  1  0
 38 73  1  0
 40 74  1  0
 42 75  1  0
 46 76  1  0
 49 77  1  0
 49 78  1  0
M  CHG  3   5  -1  23   1  26  -1
M  END
>  <EmbedRMS>  (37) 
0.0823883540366

$$$$

     RDKit          3D

 78 83  0  0  0  0  0  0  0  0999 V2000
   10.2834   43.7662   33.8256 C   0  0  0  0  0  0  0  0  0  0  0  0
   11.4102   43.5930   34.3752 O   0  0  0  0  0  0  0  0  0  0  0  0
    9.3637   42.7255   33.7348 O   0  0  0  0  0  0  0  0  0  0  0  0
    9.8907   41.2265   34.2933 P   0  0  0  0  0  0  0  0  0  0  0  0
   10.3743   41.4557   35.8827 O   0  0  0  0  0  0  0  0  0  0  0  0
    9.9546   45.0694   33.2034 C   0  0  1  0  0  0  0  0  0  0  0  0
   11.0273   46.0321   33.4755 N   0  0  0  0  0  0  0  0  0  0  0  0
    9.7467   44.8479   31.6875 C   0  0  0  0  0  0  0  0  0  0  0  0
    8.7924   45.8404   31.0840 C   0  0  0  0  0  0  0  0  0  0  0  0
    7.4056   45.6018   31.0995 C   0  0  0  0  0  0  0  0  0  0  0  0
    9.2821   46.9879   30.4428 C   0  0  0  0  0  0  0  0  0  0  0  0
    6.5269   46.5039   30.4850 C   0  0  0  0  0  0  0  0  0  0  0  0
    8.4029   47.8905   29.8329 C   0  0  0  0  0  0  0  0  0  0  0  0
    7.0141   47.6519   29.8451 C   0  0  0  0  0  0  0  0  0  0  0  0
    6.0868   48.5181   29.2428 O   0  0  0  0  0  0  0  0  0  0  0  0
    6.4085   49.6504   28.4341 C   0  0  2  0  0  0  0  0  0  0  0  0
    5.1512   50.4913   28.2097 C   0  0  0  0  0  0  0  0  0  0  0  0
    7.0310   49.2312   27.1089 C   0  0  0  0  0  0  0  0  0  0  0  0
    8.2968   49.7727   26.7735 C   0  0  0  0  0  0  0  0  0  0  0  0
    6.3710   48.3690   26.1661 C   0  0  0  0  0  0  0  0  0  0  0  0
    8.8575   49.4482   25.5456 C   0  0  0  0  0  0  0  0  0  0  0  0
    6.9844   48.0888   24.9251 C   0  0  0  0  0  0  0  0  0  0  0  0
    5.0817   47.7978   26.4259 N   0  0  0  0  0  0  0  0  0  0  0  0
   10.0684   49.8560   25.0198 O   0  0  0  0  0  0  0  0  0  0  0  0
    8.2286   48.6432   24.6599 C   0  0  0  0  0  0  0  0  0  0  0  0
    4.1210   47.8254   25.4417 O   0  0  0  0  0  0  0  0  0  0  0  0
    4.9164   47.0426   27.4044 O   0  0  0  0  0  0  0  0  0  0  0  0
   10.2075   49.2658   23.7202 C   0  0  0  0  0  0  0  0  0  0  0  0
    9.0102   48.4997   23.5297 O   0  0  0  0  0  0  0  0  0  0  0  0
    8.8123   40.1850   34.2127 O   0  0  0  0  0  0  0  0  0  0  0  0
   11.2407   40.7945   33.3670 O   0  0  0  0  0  0  0  0  0  0  0  0
   10.9134   40.6866   31.9954 C   0  0  0  0  0  0  0  0  0  0  0  0
   11.5167   39.3787   31.4404 C   0  0  0  0  0  0  0  0  0  0  0  0
   12.7486   39.0849   32.0735 O   0  0  0  0  0  0  0  0  0  0  0  0
   10.6039   38.1884   31.6669 C   0  0  0  0  0  0  0  0  0  0  0  0
   12.9329   37.6776   32.0284 C   0  0  0  0  0  0  0  0  0  0  0  0
    9.6374   38.0938   30.6484 O   0  0  0  0  0  0  0  0  0  0  0  0
   11.5737   37.0141   31.7055 C   0  0  0  0  0  0  0  0  0  0  0  0
   13.4853   37.2120   33.3238 N   0  0  0  0  0  0  0  0  0  0  0  0
   11.6210   36.3379   30.4683 O   0  0  0  0  0  0  0  0  0  0  0  0
   14.4804   36.3319   33.5726 C   0  0  0  0  0  0  0  0  0  0  0  0
   13.1141   37.6275   34.5689 C   0  0  0  0  0  0  0  0  0  0  0  0
   15.2076   35.6152   32.6740 N   0  0  0  0  0  0  0  0  0  0  0  0
   14.6761   36.2306   34.9181 C   0  0  0  0  0  0  0  0  0  0  0  0
   13.8218   37.0451   35.5783 N   0  0  0  0  0  0  0  0  0  0  0  0
   16.1642   34.7600   33.1548 C   0  0  0  0  0  0  0  0  0  0  0  0
   15.6527   35.3507   35.4131 C   0  0  0  0  0  0  0  0  0  0  0  0
   16.3795   34.6315   34.5043 N   0  0  0  0  0  0  0  0  0  0  0  0
   15.9000   35.1933   36.8090 N   0  0  0  0  0  0  0  0  0  0  0  0
    9.0120   45.4317   33.6712 H   0  0  0  0  0  0  0  0  0  0  0  0
   11.8906   45.7659   32.9468 H   0  0  0  0  0  0  0  0  0  0  0  0
   10.7259   46.9687   33.1212 H   0  0  0  0  0  0  0  0  0  0  0  0
    9.3417   43.8327   31.4761 H   0  0  0  0  0  0  0  0  0  0  0  0
   10.7231   44.8814   31.1555 H   0  0  0  0  0  0  0  0  0  0  0  0
    7.0083   44.7172   31.5819 H   0  0  0  0  0  0  0  0  0  0  0  0
   10.3465   47.1865   30.4145 H   0  0  0  0  0  0  0  0  0  0  0  0
    5.4624   46.3072   30.5025 H   0  0  0  0  0  0  0  0  0  0  0  0
    8.8169   48.7689   29.3621 H   0  0  0  0  0  0  0  0  0  0  0  0
    7.1090   50.2996   29.0052 H   0  0  0  0  0  0  0  0  0  0  0  0
    4.7804   50.8733   29.1846 H   0  0  0  0  0  0  0  0  0  0  0  0
    5.3825   51.3608   27.5578 H   0  0  0  0  0  0  0  0  0  0  0  0
    4.3413   49.8941   27.7441 H   0  0  0  0  0  0  0  0  0  0  0  0
    8.8267   50.4376   27.4438 H   0  0  0  0  0  0  0  0  0  0  0  0
    6.5076   47.4474   24.1949 H   0  0  0  0  0  0  0  0  0  0  0  0
   10.2835   50.0570   22.9452 H   0  0  0  0  0  0  0  0  0  0  0  0
   11.0961   48.6009   23.6935 H   0  0  0  0  0  0  0  0  0  0  0  0
    9.8225   40.7225   31.7631 H   0  0  0  0  0  0  0  0  0  0  0  0
   11.3828   41.5438   31.4669 H   0  0  0  0  0  0  0  0  0  0  0  0
   11.6979   39.5037   30.3478 H   0  0  0  0  0  0  0  0  0  0  0  0
   10.1084   38.2787   32.6627 H   0  0  0  0  0  0  0  0  0  0  0  0
   13.6638   37.4472   31.2214 H   0  0  0  0  0  0  0  0  0  0  0  0
    8.9763   37.4191   30.9532 H   0  0  0  0  0  0  0  0  0  0  0  0
   11.2821   36.3054   32.5172 H   0  0  0  0  0  0  0  0  0  0  0  0
   10.8658   35.6935   30.4652 H   0  0  0  0  0  0  0  0  0  0  0  0
   12.3293   38.3523   34.7444 H   0  0  0  0  0  0  0  0  0  0  0  0
   16.7561   34.1778   32.4621 H   0  0  0  0  0  0  0  0  0  0  0  0
   16.6345   34.5300   37.1416 H   0  0  0  0  0  0  0  0  0  0  0  0
   15.3533   35.7361   37.5138 H   0  0  0  0  0  0  0  0  0  0  0  0
  1  2  2  0
  1  3  1  0
  3  4  1  0
  4  5  1  0
  6  1  1  0
  7  6  1  0
  6  8  1  0
  8  9  1  0
  9 10  2  0
 11  9  1  0
 10 12  1  0
 13 11  2  0
 12 14  2  0
 14 13  1  0
 14 15  1  0
 15 16  1  0
 16 17  1  0
 16 18  1  0
 18 19  2  0
 20 18  1  0
 19 21  1  0
 22 20  2  0
 20 23  1  0
 21 24  1  0
 21 25  2  0
 25 22  1  0
 23 26  1  0
 23 27  2  0
 24 28  1  0
 25 29  1  0
 28 29  1  0
  4 30  2  0
  4 31  1  0
 32 31  1  0
 32 33  1  0
 33 34  1  0
 33 35  1  0
 34 36  1  0
 35 37  1  0
 35 38  1  0
 38 36  1  0
 36 39  1  0
 38 40  1  0
 41 39  1  0
 42 39  1  0
 43 41  2  0
 41 44  1  0
 45 42  2  0
 46 43  1  0
 44 47  2  0
 44 45  1  0
 48 46  2  0
 48 47  1  0
 47 49  1  0
  6 50  1  1
  7 51  1  0
  7 52  1  0
  8 53  1  0
  8 54  1  0
 10 55  1  0
 11 56  1  0
 12 57  1  0
 13 58  1  0
 16 59  1  1
 17 60  1  0
 17 61  1  0
 17 62  1  0
 19 63  1  0
 22 64  1  0
 28 65  1  0
 28 66  1  0
 32 67  1  0
 32 68  1  0
 33 69  1  0
 35 70  1  0
 36 71  1  0
 37 72  1  0
 38 73  1  0
 40 74  1  0
 42 75  1  0
 46 76  1  0
 49 77  1  0
 49 78  1  0
M  CHG  3   5  -1  23   1  26  -1
M  END
>  <EmbedRMS>  (38) 
0.0825719861127

$$$$

     RDKit          3D

 78 83  0  0  0  0  0  0  0  0999 V2000
   10.2834   43.7662   33.8257 C   0  0  0  0  0  0  0  0  0  0  0  0
   11.4102   43.5931   34.3753 O   0  0  0  0  0  0  0  0  0  0  0  0
    9.3637   42.7255   33.7350 O   0  0  0  0  0  0  0  0  0  0  0  0
    9.8903   41.2268   34.2946 P   0  0  0  0  0  0  0  0  0  0  0  0
   10.3728   41.4561   35.8842 O   0  0  0  0  0  0  0  0  0  0  0  0
    9.9547   45.0695   33.2035 C   0  0  1  0  0  0  0  0  0  0  0  0
   11.0272   46.0323   33.4759 N   0  0  0  0  0  0  0  0  0  0  0  0
    9.7471   44.8484   31.6876 C   0  0  0  0  0  0  0  0  0  0  0  0
    8.7925   45.8408   31.0843 C   0  0  0  0  0  0  0  0  0  0  0  0
    7.4059   45.6008   31.0992 C   0  0  0  0  0  0  0  0  0  0  0  0
    9.2817   46.9877   30.4416 C   0  0  0  0  0  0  0  0  0  0  0  0
    6.5247   46.5008   30.4845 C   0  0  0  0  0  0  0  0  0  0  0  0
    8.4004   47.8880   29.8320 C   0  0  0  0  0  0  0  0  0  0  0  0
    7.0186   47.6571   29.8472 C   0  0  0  0  0  0  0  0  0  0  0  0
    6.1810   48.5967   29.2243 O   0  0  0  0  0  0  0  0  0  0  0  0
    4.7514   48.5442   29.1981 C   0  0  2  0  0  0  0  0  0  0  0  0
    4.2389   49.6196   28.2430 C   0  0  0  0  0  0  0  0  0  0  0  0
    4.1696   48.7744   30.5839 C   0  0  0  0  0  0  0  0  0  0  0  0
    4.7895   49.7252   31.4328 C   0  0  0  0  0  0  0  0  0  0  0  0
    2.9600   48.1361   31.0163 C   0  0  0  0  0  0  0  0  0  0  0  0
    4.2102   49.9919   32.6663 C   0  0  0  0  0  0  0  0  0  0  0  0
    2.4078   48.4599   32.2751 C   0  0  0  0  0  0  0  0  0  0  0  0
    2.2686   47.1893   30.1909 N   0  0  0  0  0  0  0  0  0  0  0  0
    4.6404   50.8656   33.6463 O   0  0  0  0  0  0  0  0  0  0  0  0
    3.0696   49.3866   33.0695 C   0  0  0  0  0  0  0  0  0  0  0  0
    0.9021   47.2785   30.0605 O   0  0  0  0  0  0  0  0  0  0  0  0
    2.8387   46.1373   29.8371 O   0  0  0  0  0  0  0  0  0  0  0  0
    3.7098   50.8012   34.7357 C   0  0  0  0  0  0  0  0  0  0  0  0
    2.7223   49.8455   34.3255 O   0  0  0  0  0  0  0  0  0  0  0  0
    8.8125   40.1848   34.2125 O   0  0  0  0  0  0  0  0  0  0  0  0
   11.2416   40.7948   33.3707 O   0  0  0  0  0  0  0  0  0  0  0  0
   10.9179   40.6922   31.9984 C   0  0  0  0  0  0  0  0  0  0  0  0
   11.5175   39.3838   31.4423 C   0  0  0  0  0  0  0  0  0  0  0  0
   12.7508   39.0887   32.0752 O   0  0  0  0  0  0  0  0  0  0  0  0
   10.6028   38.1916   31.6659 C   0  0  0  0  0  0  0  0  0  0  0  0
   12.9384   37.6818   32.0278 C   0  0  0  0  0  0  0  0  0  0  0  0
    9.6371   38.0806   30.6470 O   0  0  0  0  0  0  0  0  0  0  0  0
   11.5780   37.0215   31.6935 C   0  0  0  0  0  0  0  0  0  0  0  0
   13.4844   37.2119   33.3242 N   0  0  0  0  0  0  0  0  0  0  0  0
   11.6095   36.3201   30.4679 O   0  0  0  0  0  0  0  0  0  0  0  0
   14.4797   36.3318   33.5730 C   0  0  0  0  0  0  0  0  0  0  0  0
   13.1135   37.6278   34.5691 C   0  0  0  0  0  0  0  0  0  0  0  0
   15.2073   35.6155   32.6742 N   0  0  0  0  0  0  0  0  0  0  0  0
   14.6754   36.2305   34.9184 C   0  0  0  0  0  0  0  0  0  0  0  0
   13.8213   37.0452   35.5785 N   0  0  0  0  0  0  0  0  0  0  0  0
   16.1640   34.7604   33.1549 C   0  0  0  0  0  0  0  0  0  0  0  0
   15.6524   35.3507   35.4132 C   0  0  0  0  0  0  0  0  0  0  0  0
   16.3794   34.6318   34.5044 N   0  0  0  0  0  0  0  0  0  0  0  0
   15.8999   35.1934   36.8091 N   0  0  0  0  0  0  0  0  0  0  0  0
    9.0119   45.4317   33.6712 H   0  0  0  0  0  0  0  0  0  0  0  0
   10.7258   46.9689   33.1215 H   0  0  0  0  0  0  0  0  0  0  0  0
   11.8907   45.7660   32.9475 H   0  0  0  0  0  0  0  0  0  0  0  0
   10.7236   44.8824   31.1558 H   0  0  0  0  0  0  0  0  0  0  0  0
    9.3425   43.8331   31.4758 H   0  0  0  0  0  0  0  0  0  0  0  0
    7.0101   44.7155   31.5816 H   0  0  0  0  0  0  0  0  0  0  0  0
   10.3460   47.1861   30.4098 H   0  0  0  0  0  0  0  0  0  0  0  0
    5.4671   46.2859   30.5132 H   0  0  0  0  0  0  0  0  0  0  0  0
    8.7934   48.7708   29.3437 H   0  0  0  0  0  0  0  0  0  0  0  0
    4.4491   47.5659   28.7773 H   0  0  0  0  0  0  0  0  0  0  0  0
    4.6519   49.4472   27.2265 H   0  0  0  0  0  0  0  0  0  0  0  0
    4.5523   50.6287   28.5871 H   0  0  0  0  0  0  0  0  0  0  0  0
    3.1299   49.5837   28.1834 H   0  0  0  0  0  0  0  0  0  0  0  0
    5.6881   50.2509   31.1361 H   0  0  0  0  0  0  0  0  0  0  0  0
    1.4951   47.9948   32.6248 H   0  0  0  0  0  0  0  0  0  0  0  0
    4.2211   50.4523   35.6574 H   0  0  0  0  0  0  0  0  0  0  0  0
    3.2389   51.7934   34.8976 H   0  0  0  0  0  0  0  0  0  0  0  0
    9.8291   40.7409   31.7627 H   0  0  0  0  0  0  0  0  0  0  0  0
   11.3952   41.5478   31.4744 H   0  0  0  0  0  0  0  0  0  0  0  0
   11.6981   39.5115   30.3500 H   0  0  0  0  0  0  0  0  0  0  0  0
   10.1117   38.2604   32.6661 H   0  0  0  0  0  0  0  0  0  0  0  0
   13.6767   37.4556   31.2267 H   0  0  0  0  0  0  0  0  0  0  0  0
    8.8961   38.6952   30.8872 H   0  0  0  0  0  0  0  0  0  0  0  0
   11.2791   36.3072   32.4922 H   0  0  0  0  0  0  0  0  0  0  0  0
   11.8828   36.9598   29.7589 H   0  0  0  0  0  0  0  0  0  0  0  0
   12.3300   38.3539   34.7446 H   0  0  0  0  0  0  0  0  0  0  0  0
   16.7562   34.1785   32.4622 H   0  0  0  0  0  0  0  0  0  0  0  0
   16.6347   34.5303   37.1416 H   0  0  0  0  0  0  0  0  0  0  0  0
   15.3531   35.7360   37.5140 H   0  0  0  0  0  0  0  0  0  0  0  0
  1  2  2  0
  1  3  1  0
  3  4  1  0
  4  5  1  0
  6  1  1  0
  7  6  1  0
  6  8  1  0
  8  9  1  0
  9 10  2  0
 11  9  1  0
 10 12  1  0
 13 11  2  0
 12 14  2  0
 14 13  1  0
 14 15  1  0
 15 16  1  0
 16 17  1  0
 16 18  1  0
 18 19  2  0
 20 18  1  0
 19 21  1  0
 22 20  2  0
 20 23  1  0
 21 24  1  0
 21 25  2  0
 25 22  1  0
 23 26  1  0
 23 27  2  0
 24 28  1  0
 25 29  1  0
 28 29  1  0
  4 30  2  0
  4 31  1  0
 32 31  1  0
 32 33  1  0
 33 34  1  0
 33 35  1  0
 34 36  1  0
 35 37  1  0
 35 38  1  0
 38 36  1  0
 36 39  1  0
 38 40  1  0
 41 39  1  0
 42 39  1  0
 43 41  2  0
 41 44  1  0
 45 42  2  0
 46 43  1  0
 44 47  2  0
 44 45  1  0
 48 46  2  0
 48 47  1  0
 47 49  1  0
  6 50  1  1
  7 51  1  0
  7 52  1  0
  8 53  1  0
  8 54  1  0
 10 55  1  0
 11 56  1  0
 12 57  1  0
 13 58  1  0
 16 59  1  6
 17 60  1  0
 17 61  1  0
 17 62  1  0
 19 63  1  0
 22 64  1  0
 28 65  1  0
 28 66  1  0
 32 67  1  0
 32 68  1  0
 33 69  1  0
 35 70  1  0
 36 71  1  0
 37 72  1  0
 38 73  1  0
 40 74  1  0
 42 75  1  0
 46 76  1  0
 49 77  1  0
 49 78  1  0
M  CHG  3   5  -1  23   1  26  -1
M  END
>  <EmbedRMS>  (39) 
0.0819703830816

$$$$

     RDKit          3D

 78 83  0  0  0  0  0  0  0  0999 V2000
   10.2835   43.7661   33.8256 C   0  0  0  0  0  0  0  0  0  0  0  0
   11.4102   43.5930   34.3753 O   0  0  0  0  0  0  0  0  0  0  0  0
    9.3639   42.7253   33.7347 O   0  0  0  0  0  0  0  0  0  0  0  0
    9.8907   41.2265   34.2938 P   0  0  0  0  0  0  0  0  0  0  0  0
   10.3733   41.4559   35.8835 O   0  0  0  0  0  0  0  0  0  0  0  0
    9.9548   45.0695   33.2035 C   0  0  1  0  0  0  0  0  0  0  0  0
   11.0273   46.0322   33.4759 N   0  0  0  0  0  0  0  0  0  0  0  0
    9.7472   44.8483   31.6874 C   0  0  0  0  0  0  0  0  0  0  0  0
    8.7927   45.8407   31.0841 C   0  0  0  0  0  0  0  0  0  0  0  0
    7.4061   45.6011   31.0993 C   0  0  0  0  0  0  0  0  0  0  0  0
    9.2817   46.9877   30.4423 C   0  0  0  0  0  0  0  0  0  0  0  0
    6.5242   46.5012   30.4856 C   0  0  0  0  0  0  0  0  0  0  0  0
    8.4004   47.8881   29.8331 C   0  0  0  0  0  0  0  0  0  0  0  0
    7.0184   47.6566   29.8446 C   0  0  0  0  0  0  0  0  0  0  0  0
    6.1871   48.6015   29.2198 O   0  0  0  0  0  0  0  0  0  0  0  0
    4.7662   48.5128   29.0776 C   0  0  2  0  0  0  0  0  0  0  0  0
    4.4348   47.5188   27.9534 C   0  0  0  0  0  0  0  0  0  0  0  0
    4.2152   49.9229   28.8711 C   0  0  0  0  0  0  0  0  0  0  0  0
    3.4337   50.2562   27.7290 C   0  0  0  0  0  0  0  0  0  0  0  0
    4.5169   50.9580   29.8237 C   0  0  0  0  0  0  0  0  0  0  0  0
    3.0086   51.5683   27.5696 C   0  0  0  0  0  0  0  0  0  0  0  0
    4.0666   52.2787   29.5959 C   0  0  0  0  0  0  0  0  0  0  0  0
    5.2894   50.6939   31.0077 N   0  0  0  0  0  0  0  0  0  0  0  0
    2.2528   52.1061   26.5454 O   0  0  0  0  0  0  0  0  0  0  0  0
    3.3138   52.5365   28.4609 C   0  0  0  0  0  0  0  0  0  0  0  0
    4.9904   49.6190   31.8117 O   0  0  0  0  0  0  0  0  0  0  0  0
    6.1050   51.5438   31.4213 O   0  0  0  0  0  0  0  0  0  0  0  0
    2.0729   53.5031   26.8143 C   0  0  0  0  0  0  0  0  0  0  0  0
    2.7668   53.7360   28.0473 O   0  0  0  0  0  0  0  0  0  0  0  0
    8.8126   40.1848   34.2122 O   0  0  0  0  0  0  0  0  0  0  0  0
   11.2418   40.7943   33.3694 O   0  0  0  0  0  0  0  0  0  0  0  0
   10.9179   40.6904   31.9970 C   0  0  0  0  0  0  0  0  0  0  0  0
   11.5181   39.3814   31.4408 C   0  0  0  0  0  0  0  0  0  0  0  0
   12.7497   39.0870   32.0745 O   0  0  0  0  0  0  0  0  0  0  0  0
   10.6045   38.1892   31.6655 C   0  0  0  0  0  0  0  0  0  0  0  0
   12.9344   37.6801   32.0290 C   0  0  0  0  0  0  0  0  0  0  0  0
    9.6418   38.0758   30.6441 O   0  0  0  0  0  0  0  0  0  0  0  0
   11.5741   37.0170   31.7045 C   0  0  0  0  0  0  0  0  0  0  0  0
   13.4851   37.2126   33.3241 N   0  0  0  0  0  0  0  0  0  0  0  0
   11.6079   36.3407   30.4680 O   0  0  0  0  0  0  0  0  0  0  0  0
   14.4801   36.3321   33.5727 C   0  0  0  0  0  0  0  0  0  0  0  0
   13.1140   37.6277   34.5693 C   0  0  0  0  0  0  0  0  0  0  0  0
   15.2073   35.6155   32.6739 N   0  0  0  0  0  0  0  0  0  0  0  0
   14.6758   36.2306   34.9182 C   0  0  0  0  0  0  0  0  0  0  0  0
   13.8217   37.0450   35.5785 N   0  0  0  0  0  0  0  0  0  0  0  0
   16.1639   34.7602   33.1546 C   0  0  0  0  0  0  0  0  0  0  0  0
   15.6526   35.3506   35.4130 C   0  0  0  0  0  0  0  0  0  0  0  0
   16.3794   34.6316   34.5041 N   0  0  0  0  0  0  0  0  0  0  0  0
   15.9000   35.1933   36.8089 N   0  0  0  0  0  0  0  0  0  0  0  0
    9.0120   45.4316   33.6711 H   0  0  0  0  0  0  0  0  0  0  0  0
   11.8908   45.7660   32.9476 H   0  0  0  0  0  0  0  0  0  0  0  0
   10.7259   46.9688   33.1215 H   0  0  0  0  0  0  0  0  0  0  0  0
   10.7237   44.8823   31.1557 H   0  0  0  0  0  0  0  0  0  0  0  0
    9.3427   43.8330   31.4757 H   0  0  0  0  0  0  0  0  0  0  0  0
    7.0107   44.7161   31.5827 H   0  0  0  0  0  0  0  0  0  0  0  0
   10.3459   47.1866   30.4112 H   0  0  0  0  0  0  0  0  0  0  0  0
    5.4672   46.2829   30.5206 H   0  0  0  0  0  0  0  0  0  0  0  0
    8.7940   48.7710   29.3456 H   0  0  0  0  0  0  0  0  0  0  0  0
    4.3064   48.1234   30.0083 H   0  0  0  0  0  0  0  0  0  0  0  0
    4.8566   47.8690   26.9872 H   0  0  0  0  0  0  0  0  0  0  0  0
    3.3356   47.3860   27.8644 H   0  0  0  0  0  0  0  0  0  0  0  0
    4.8734   46.5243   28.1746 H   0  0  0  0  0  0  0  0  0  0  0  0
    3.1617   49.5363   26.9717 H   0  0  0  0  0  0  0  0  0  0  0  0
    4.2848   53.0767   30.2940 H   0  0  0  0  0  0  0  0  0  0  0  0
    0.9938   53.7358   26.9319 H   0  0  0  0  0  0  0  0  0  0  0  0
    2.5214   54.1117   26.0013 H   0  0  0  0  0  0  0  0  0  0  0  0
    9.8290   40.7386   31.7617 H   0  0  0  0  0  0  0  0  0  0  0  0
   11.3945   41.5459   31.4722 H   0  0  0  0  0  0  0  0  0  0  0  0
   11.6994   39.5069   30.3484 H   0  0  0  0  0  0  0  0  0  0  0  0
   10.1090   38.2635   32.6632 H   0  0  0  0  0  0  0  0  0  0  0  0
   13.6662   37.4515   31.2224 H   0  0  0  0  0  0  0  0  0  0  0  0
    8.9009   38.6925   30.8793 H   0  0  0  0  0  0  0  0  0  0  0  0
   11.2650   36.3083   32.5087 H   0  0  0  0  0  0  0  0  0  0  0  0
   12.1372   35.5141   30.6163 H   0  0  0  0  0  0  0  0  0  0  0  0
   12.3297   38.3530   34.7450 H   0  0  0  0  0  0  0  0  0  0  0  0
   16.7558   34.1781   32.4619 H   0  0  0  0  0  0  0  0  0  0  0  0
   15.3533   35.7360   37.5138 H   0  0  0  0  0  0  0  0  0  0  0  0
   16.6346   34.5300   37.1414 H   0  0  0  0  0  0  0  0  0  0  0  0
  1  2  2  0
  1  3  1  0
  3  4  1  0
  4  5  1  0
  6  1  1  0
  7  6  1  0
  6  8  1  0
  8  9  1  0
  9 10  2  0
 11  9  1  0
 10 12  1  0
 13 11  2  0
 12 14  2  0
 14 13  1  0
 14 15  1  0
 15 16  1  0
 16 17  1  0
 16 18  1  0
 18 19  2  0
 20 18  1  0
 19 21  1  0
 22 20  2  0
 20 23  1  0
 21 24  1  0
 21 25  2  0
 25 22  1  0
 23 26  1  0
 23 27  2  0
 24 28  1  0
 25 29  1  0
 28 29  1  0
  4 30  2  0
  4 31  1  0
 32 31  1  0
 32 33  1  0
 33 34  1  0
 33 35  1  0
 34 36  1  0
 35 37  1  0
 35 38  1  0
 38 36  1  0
 36 39  1  0
 38 40  1  0
 41 39  1  0
 42 39  1  0
 43 41  2  0
 41 44  1  0
 45 42  2  0
 46 43  1  0
 44 47  2  0
 44 45  1  0
 48 46  2  0
 48 47  1  0
 47 49  1  0
  6 50  1  1
  7 51  1  0
  7 52  1  0
  8 53  1  0
  8 54  1  0
 10 55  1  0
 11 56  1  0
 12 57  1  0
 13 58  1  0
 16 59  1  1
 17 60  1  0
 17 61  1  0
 17 62  1  0
 19 63  1  0
 22 64  1  0
 28 65  1  0
 28 66  1  0
 32 67  1  0
 32 68  1  0
 33 69  1  0
 35 70  1  0
 36 71  1  0
 37 72  1  0
 38 73  1  0
 40 74  1  0
 42 75  1  0
 46 76  1  0
 49 77  1  0
 49 78  1  0
M  CHG  3   5  -1  23   1  26  -1
M  END
>  <EmbedRMS>  (40) 
0.082816798012

$$$$

     RDKit          3D

 78 83  0  0  0  0  0  0  0  0999 V2000
   10.2834   43.7662   33.8256 C   0  0  0  0  0  0  0  0  0  0  0  0
   11.4101   43.5930   34.3752 O   0  0  0  0  0  0  0  0  0  0  0  0
    9.3636   42.7255   33.7349 O   0  0  0  0  0  0  0  0  0  0  0  0
    9.8905   41.2266   34.2934 P   0  0  0  0  0  0  0  0  0  0  0  0
   10.3743   41.4557   35.8827 O   0  0  0  0  0  0  0  0  0  0  0  0
    9.9546   45.0695   33.2035 C   0  0  1  0  0  0  0  0  0  0  0  0
   11.0273   46.0321   33.4755 N   0  0  0  0  0  0  0  0  0  0  0  0
    9.7466   44.8480   31.6875 C   0  0  0  0  0  0  0  0  0  0  0  0
    8.7923   45.8407   31.0842 C   0  0  0  0  0  0  0  0  0  0  0  0
    7.4055   45.6018   31.0995 C   0  0  0  0  0  0  0  0  0  0  0  0
    9.2823   46.9878   30.4426 C   0  0  0  0  0  0  0  0  0  0  0  0
    6.5266   46.5036   30.4846 C   0  0  0  0  0  0  0  0  0  0  0  0
    8.4033   47.8903   29.8326 C   0  0  0  0  0  0  0  0  0  0  0  0
    7.0141   47.6520   29.8458 C   0  0  0  0  0  0  0  0  0  0  0  0
    6.0890   48.5193   29.2418 O   0  0  0  0  0  0  0  0  0  0  0  0
    6.4224   49.6781   28.4724 C   0  0  2  0  0  0  0  0  0  0  0  0
    5.1434   50.4648   28.1906 C   0  0  0  0  0  0  0  0  0  0  0  0
    7.0852   49.2775   27.1653 C   0  0  0  0  0  0  0  0  0  0  0  0
    6.5327   48.2010   26.4287 C   0  0  0  0  0  0  0  0  0  0  0  0
    8.2777   49.9150   26.6881 C   0  0  0  0  0  0  0  0  0  0  0  0
    7.1901   47.7749   25.2824 C   0  0  0  0  0  0  0  0  0  0  0  0
    8.9117   49.4269   25.5223 C   0  0  0  0  0  0  0  0  0  0  0  0
    8.8404   51.0550   27.3560 N   0  0  0  0  0  0  0  0  0  0  0  0
    6.8442   46.7480   24.4253 O   0  0  0  0  0  0  0  0  0  0  0  0
    8.3320   48.3583   24.8512 C   0  0  0  0  0  0  0  0  0  0  0  0
    8.0376   52.1162   27.7049 O   0  0  0  0  0  0  0  0  0  0  0  0
   10.0797   51.1900   27.4223 O   0  0  0  0  0  0  0  0  0  0  0  0
    7.8335   46.6847   23.3889 C   0  0  0  0  0  0  0  0  0  0  0  0
    8.7646   47.7306   23.6990 O   0  0  0  0  0  0  0  0  0  0  0  0
    8.8122   40.1851   34.2128 O   0  0  0  0  0  0  0  0  0  0  0  0
   11.2403   40.7946   33.3668 O   0  0  0  0  0  0  0  0  0  0  0  0
   10.9126   40.6859   31.9954 C   0  0  0  0  0  0  0  0  0  0  0  0
   11.5175   39.3787   31.4405 C   0  0  0  0  0  0  0  0  0  0  0  0
   12.7490   39.0864   32.0752 O   0  0  0  0  0  0  0  0  0  0  0  0
   10.6061   38.1868   31.6656 C   0  0  0  0  0  0  0  0  0  0  0  0
   12.9356   37.6796   32.0292 C   0  0  0  0  0  0  0  0  0  0  0  0
    9.6399   38.0903   30.6471 O   0  0  0  0  0  0  0  0  0  0  0  0
   11.5765   37.0145   31.7044 C   0  0  0  0  0  0  0  0  0  0  0  0
   13.4858   37.2125   33.3244 N   0  0  0  0  0  0  0  0  0  0  0  0
   11.6101   36.3397   30.4673 O   0  0  0  0  0  0  0  0  0  0  0  0
   14.4805   36.3319   33.5729 C   0  0  0  0  0  0  0  0  0  0  0  0
   13.1143   37.6276   34.5694 C   0  0  0  0  0  0  0  0  0  0  0  0
   15.2076   35.6153   32.6741 N   0  0  0  0  0  0  0  0  0  0  0  0
   14.6760   36.2304   34.9184 C   0  0  0  0  0  0  0  0  0  0  0  0
   13.8219   37.0449   35.5786 N   0  0  0  0  0  0  0  0  0  0  0  0
   16.1641   34.7600   33.1548 C   0  0  0  0  0  0  0  0  0  0  0  0
   15.6528   35.3505   35.4132 C   0  0  0  0  0  0  0  0  0  0  0  0
   16.3795   34.6314   34.5043 N   0  0  0  0  0  0  0  0  0  0  0  0
   15.9002   35.1931   36.8091 N   0  0  0  0  0  0  0  0  0  0  0  0
    9.0120   45.4318   33.6713 H   0  0  0  0  0  0  0  0  0  0  0  0
   11.8906   45.7658   32.9468 H   0  0  0  0  0  0  0  0  0  0  0  0
   10.7259   46.9687   33.1212 H   0  0  0  0  0  0  0  0  0  0  0  0
    9.3415   43.8329   31.4761 H   0  0  0  0  0  0  0  0  0  0  0  0
   10.7230   44.8814   31.1555 H   0  0  0  0  0  0  0  0  0  0  0  0
    7.0083   44.7171   31.5817 H   0  0  0  0  0  0  0  0  0  0  0  0
   10.3468   47.1855   30.4129 H   0  0  0  0  0  0  0  0  0  0  0  0
    5.4621   46.3069   30.5017 H   0  0  0  0  0  0  0  0  0  0  0  0
    8.8171   48.7665   29.3552 H   0  0  0  0  0  0  0  0  0  0  0  0
    7.0821   50.3229   29.0884 H   0  0  0  0  0  0  0  0  0  0  0  0
    4.4112   49.8377   27.6383 H   0  0  0  0  0  0  0  0  0  0  0  0
    5.3704   51.3703   27.5887 H   0  0  0  0  0  0  0  0  0  0  0  0
    4.6821   50.7852   29.1488 H   0  0  0  0  0  0  0  0  0  0  0  0
    5.6310   47.6971   26.7531 H   0  0  0  0  0  0  0  0  0  0  0  0
    9.8153   49.8831   25.1389 H   0  0  0  0  0  0  0  0  0  0  0  0
    8.3446   45.6993   23.4056 H   0  0  0  0  0  0  0  0  0  0  0  0
    7.3654   46.8695   22.3994 H   0  0  0  0  0  0  0  0  0  0  0  0
   11.3803   41.5437   31.4663 H   0  0  0  0  0  0  0  0  0  0  0  0
    9.8215   40.7200   31.7636 H   0  0  0  0  0  0  0  0  0  0  0  0
   11.6998   39.5041   30.3482 H   0  0  0  0  0  0  0  0  0  0  0  0
   10.1085   38.2767   32.6603 H   0  0  0  0  0  0  0  0  0  0  0  0
   13.6680   37.4520   31.2229 H   0  0  0  0  0  0  0  0  0  0  0  0
    9.0016   37.3868   30.9349 H   0  0  0  0  0  0  0  0  0  0  0  0
   11.2667   36.3062   32.5083 H   0  0  0  0  0  0  0  0  0  0  0  0
   12.1389   35.5126   30.6150 H   0  0  0  0  0  0  0  0  0  0  0  0
   12.3300   38.3529   34.7449 H   0  0  0  0  0  0  0  0  0  0  0  0
   16.7560   34.1779   32.4621 H   0  0  0  0  0  0  0  0  0  0  0  0
   15.3534   35.7359   37.5140 H   0  0  0  0  0  0  0  0  0  0  0  0
   16.6347   34.5298   37.1416 H   0  0  0  0  0  0  0  0  0  0  0  0
  1  2  2  0
  1  3  1  0
  3  4  1  0
  4  5  1  0
  6  1  1  0
  7  6  1  0
  6  8  1  0
  8  9  1  0
  9 10  2  0
 11  9  1  0
 10 12  1  0
 13 11  2  0
 12 14  2  0
 14 13  1  0
 14 15  1  0
 15 16  1  0
 16 17  1  0
 16 18  1  0
 18 19  2  0
 20 18  1  0
 19 21  1  0
 22 20  2  0
 20 23  1  0
 21 24  1  0
 21 25  2  0
 25 22  1  0
 23 26  1  0
 23 27  2  0
 24 28  1  0
 25 29  1  0
 28 29  1  0
  4 30  2  0
  4 31  1  0
 32 31  1  0
 32 33  1  0
 33 34  1  0
 33 35  1  0
 34 36  1  0
 35 37  1  0
 35 38  1  0
 38 36  1  0
 36 39  1  0
 38 40  1  0
 41 39  1  0
 42 39  1  0
 43 41  2  0
 41 44  1  0
 45 42  2  0
 46 43  1  0
 44 47  2  0
 44 45  1  0
 48 46  2  0
 48 47  1  0
 47 49  1  0
  6 50  1  1
  7 51  1  0
  7 52  1  0
  8 53  1  0
  8 54  1  0
 10 55  1  0
 11 56  1  0
 12 57  1  0
 13 58  1  0
 16 59  1  1
 17 60  1  0
 17 61  1  0
 17 62  1  0
 19 63  1  0
 22 64  1  0
 28 65  1  0
 28 66  1  0
 32 67  1  0
 32 68  1  0
 33 69  1  0
 35 70  1  0
 36 71  1  0
 37 72  1  0
 38 73  1  0
 40 74  1  0
 42 75  1  0
 46 76  1  0
 49 77  1  0
 49 78  1  0
M  CHG  3   5  -1  23   1  26  -1
M  END
>  <EmbedRMS>  (41) 
0.0824074279947

$$$$

     RDKit          3D

 78 83  0  0  0  0  0  0  0  0999 V2000
   10.2833   43.7664   33.8257 C   0  0  0  0  0  0  0  0  0  0  0  0
   11.4101   43.5932   34.3751 O   0  0  0  0  0  0  0  0  0  0  0  0
    9.3637   42.7256   33.7349 O   0  0  0  0  0  0  0  0  0  0  0  0
    9.8903   41.2268   34.2942 P   0  0  0  0  0  0  0  0  0  0  0  0
   10.3735   41.4562   35.8836 O   0  0  0  0  0  0  0  0  0  0  0  0
    9.9542   45.0698   33.2038 C   0  0  1  0  0  0  0  0  0  0  0  0
   11.0268   46.0326   33.4760 N   0  0  0  0  0  0  0  0  0  0  0  0
    9.7464   44.8488   31.6879 C   0  0  0  0  0  0  0  0  0  0  0  0
    8.7920   45.8417   31.0850 C   0  0  0  0  0  0  0  0  0  0  0  0
    7.4046   45.6001   31.0977 C   0  0  0  0  0  0  0  0  0  0  0  0
    9.2825   46.9878   30.4392 C   0  0  0  0  0  0  0  0  0  0  0  0
    6.5258   46.5002   30.4800 C   0  0  0  0  0  0  0  0  0  0  0  0
    8.4018   47.8881   29.8277 C   0  0  0  0  0  0  0  0  0  0  0  0
    7.0191   47.6556   29.8585 C   0  0  0  0  0  0  0  0  0  0  0  0
    6.1263   48.5497   29.2589 O   0  0  0  0  0  0  0  0  0  0  0  0
    5.7132   49.8001   29.8278 C   0  0  2  0  0  0  0  0  0  0  0  0
    6.8700   50.8011   29.9292 C   0  0  0  0  0  0  0  0  0  0  0  0
    5.0012   49.6024   31.1632 C   0  0  0  0  0  0  0  0  0  0  0  0
    5.7402   49.1422   32.2841 C   0  0  0  0  0  0  0  0  0  0  0  0
    3.5869   49.8035   31.3028 C   0  0  0  0  0  0  0  0  0  0  0  0
    5.0614   48.8622   33.4621 C   0  0  0  0  0  0  0  0  0  0  0  0
    2.9481   49.4891   32.5236 C   0  0  0  0  0  0  0  0  0  0  0  0
    2.7956   50.3447   30.2363 N   0  0  0  0  0  0  0  0  0  0  0  0
    5.5731   48.3927   34.6565 O   0  0  0  0  0  0  0  0  0  0  0  0
    3.7239   49.0227   33.5753 C   0  0  0  0  0  0  0  0  0  0  0  0
    3.1060   51.5810   29.7186 O   0  0  0  0  0  0  0  0  0  0  0  0
    1.6851   49.8406   29.9702 O   0  0  0  0  0  0  0  0  0  0  0  0
    4.4840   48.2505   35.5785 C   0  0  0  0  0  0  0  0  0  0  0  0
    3.3216   48.6644   34.8476 O   0  0  0  0  0  0  0  0  0  0  0  0
    8.8122   40.1851   34.2131 O   0  0  0  0  0  0  0  0  0  0  0  0
   11.2407   40.7940   33.3693 O   0  0  0  0  0  0  0  0  0  0  0  0
   10.9151   40.6905   31.9974 C   0  0  0  0  0  0  0  0  0  0  0  0
   11.5252   39.3886   31.4376 C   0  0  0  0  0  0  0  0  0  0  0  0
   12.7500   39.0874   32.0799 O   0  0  0  0  0  0  0  0  0  0  0  0
   10.6092   38.1926   31.6470 C   0  0  0  0  0  0  0  0  0  0  0  0
   12.9332   37.6793   32.0294 C   0  0  0  0  0  0  0  0  0  0  0  0
    9.6122   38.0895   30.6543 O   0  0  0  0  0  0  0  0  0  0  0  0
   11.5743   37.0145   31.7024 C   0  0  0  0  0  0  0  0  0  0  0  0
   13.4844   37.2108   33.3241 N   0  0  0  0  0  0  0  0  0  0  0  0
   11.6297   36.3239   30.4740 O   0  0  0  0  0  0  0  0  0  0  0  0
   14.4802   36.3313   33.5727 C   0  0  0  0  0  0  0  0  0  0  0  0
   13.1139   37.6267   34.5692 C   0  0  0  0  0  0  0  0  0  0  0  0
   15.2075   35.6149   32.6739 N   0  0  0  0  0  0  0  0  0  0  0  0
   14.6761   36.2303   34.9181 C   0  0  0  0  0  0  0  0  0  0  0  0
   13.8220   37.0447   35.5785 N   0  0  0  0  0  0  0  0  0  0  0  0
   16.1643   34.7600   33.1547 C   0  0  0  0  0  0  0  0  0  0  0  0
   15.6529   35.3505   35.4130 C   0  0  0  0  0  0  0  0  0  0  0  0
   16.3798   34.6315   34.5042 N   0  0  0  0  0  0  0  0  0  0  0  0
   15.9003   35.1932   36.8090 N   0  0  0  0  0  0  0  0  0  0  0  0
    9.0115   45.4320   33.6716 H   0  0  0  0  0  0  0  0  0  0  0  0
   10.7251   46.9692   33.1218 H   0  0  0  0  0  0  0  0  0  0  0  0
   11.8901   45.7666   32.9473 H   0  0  0  0  0  0  0  0  0  0  0  0
   10.7228   44.8825   31.1560 H   0  0  0  0  0  0  0  0  0  0  0  0
    9.3414   43.8337   31.4762 H   0  0  0  0  0  0  0  0  0  0  0  0
    7.0076   44.7150   31.5793 H   0  0  0  0  0  0  0  0  0  0  0  0
   10.3473   47.1820   30.4016 H   0  0  0  0  0  0  0  0  0  0  0  0
    5.4604   46.3088   30.4982 H   0  0  0  0  0  0  0  0  0  0  0  0
    8.7979   48.7572   29.3199 H   0  0  0  0  0  0  0  0  0  0  0  0
    5.0145   50.2333   29.0887 H   0  0  0  0  0  0  0  0  0  0  0  0
    7.3492   50.9220   28.9346 H   0  0  0  0  0  0  0  0  0  0  0  0
    7.6394   50.4706   30.6556 H   0  0  0  0  0  0  0  0  0  0  0  0
    6.4831   51.7904   30.2541 H   0  0  0  0  0  0  0  0  0  0  0  0
    6.8086   48.9827   32.2407 H   0  0  0  0  0  0  0  0  0  0  0  0
    1.8822   49.6272   32.6527 H   0  0  0  0  0  0  0  0  0  0  0  0
    4.6377   48.9091   36.4589 H   0  0  0  0  0  0  0  0  0  0  0  0
    4.3822   47.1904   35.8920 H   0  0  0  0  0  0  0  0  0  0  0  0
   11.3802   41.5529   31.4733 H   0  0  0  0  0  0  0  0  0  0  0  0
    9.8243   40.7216   31.7643 H   0  0  0  0  0  0  0  0  0  0  0  0
   11.7266   39.5311   30.3513 H   0  0  0  0  0  0  0  0  0  0  0  0
   10.1110   38.2747   32.6387 H   0  0  0  0  0  0  0  0  0  0  0  0
   13.6652   37.4519   31.2226 H   0  0  0  0  0  0  0  0  0  0  0  0
   10.0511   38.1143   29.7645 H   0  0  0  0  0  0  0  0  0  0  0  0
   11.2762   36.3142   32.5189 H   0  0  0  0  0  0  0  0  0  0  0  0
   10.8593   35.6978   30.4640 H   0  0  0  0  0  0  0  0  0  0  0  0
   12.3295   38.3518   34.7449 H   0  0  0  0  0  0  0  0  0  0  0  0
   16.7564   34.1780   32.4620 H   0  0  0  0  0  0  0  0  0  0  0  0
   15.3534   35.7359   37.5138 H   0  0  0  0  0  0  0  0  0  0  0  0
   16.6349   34.5300   37.1415 H   0  0  0  0  0  0  0  0  0  0  0  0
  1  2  2  0
  1  3  1  0
  3  4  1  0
  4  5  1  0
  6  1  1  0
  7  6  1  0
  6  8  1  0
  8  9  1  0
  9 10  2  0
 11  9  1  0
 10 12  1  0
 13 11  2  0
 12 14  2  0
 14 13  1  0
 14 15  1  0
 15 16  1  0
 16 17  1  0
 16 18  1  0
 18 19  2  0
 20 18  1  0
 19 21  1  0
 22 20  2  0
 20 23  1  0
 21 24  1  0
 21 25  2  0
 25 22  1  0
 23 26  1  0
 23 27  2  0
 24 28  1  0
 25 29  1  0
 28 29  1  0
  4 30  2  0
  4 31  1  0
 32 31  1  0
 32 33  1  0
 33 34  1  0
 33 35  1  0
 34 36  1  0
 35 37  1  0
 35 38  1  0
 38 36  1  0
 36 39  1  0
 38 40  1  0
 41 39  1  0
 42 39  1  0
 43 41  2  0
 41 44  1  0
 45 42  2  0
 46 43  1  0
 44 47  2  0
 44 45  1  0
 48 46  2  0
 48 47  1  0
 47 49  1  0
  6 50  1  1
  7 51  1  0
  7 52  1  0
  8 53  1  0
  8 54  1  0
 10 55  1  0
 11 56  1  0
 12 57  1  0
 13 58  1  0
 16 59  1  6
 17 60  1  0
 17 61  1  0
 17 62  1  0
 19 63  1  0
 22 64  1  0
 28 65  1  0
 28 66  1  0
 32 67  1  0
 32 68  1  0
 33 69  1  0
 35 70  1  0
 36 71  1  0
 37 72  1  0
 38 73  1  0
 40 74  1  0
 42 75  1  0
 46 76  1  0
 49 77  1  0
 49 78  1  0
M  CHG  3   5  -1  23   1  26  -1
M  END
>  <EmbedRMS>  (42) 
0.0819133380732

$$$$

     RDKit          3D

 78 83  0  0  0  0  0  0  0  0999 V2000
   10.2803   43.7665   33.8250 C   0  0  0  0  0  0  0  0  0  0  0  0
   11.4110   43.5919   34.3666 O   0  0  0  0  0  0  0  0  0  0  0  0
    9.3619   42.7249   33.7344 O   0  0  0  0  0  0  0  0  0  0  0  0
    9.8903   41.2265   34.2931 P   0  0  0  0  0  0  0  0  0  0  0  0
   10.3742   41.4563   35.8824 O   0  0  0  0  0  0  0  0  0  0  0  0
    9.9458   45.0737   33.2112 C   0  0  1  0  0  0  0  0  0  0  0  0
   11.0265   46.0293   33.4710 N   0  0  0  0  0  0  0  0  0  0  0  0
    9.7540   44.8543   31.6949 C   0  0  0  0  0  0  0  0  0  0  0  0
    8.7957   45.8413   31.0849 C   0  0  0  0  0  0  0  0  0  0  0  0
    7.4090   45.5997   31.1008 C   0  0  0  0  0  0  0  0  0  0  0  0
    9.2824   46.9876   30.4390 C   0  0  0  0  0  0  0  0  0  0  0  0
    6.5261   46.4982   30.4858 C   0  0  0  0  0  0  0  0  0  0  0  0
    8.3997   47.8870   29.8302 C   0  0  0  0  0  0  0  0  0  0  0  0
    7.0182   47.6558   29.8483 C   0  0  0  0  0  0  0  0  0  0  0  0
    6.1788   48.5951   29.2269 O   0  0  0  0  0  0  0  0  0  0  0  0
    4.7490   48.5607   29.2394 C   0  0  2  0  0  0  0  0  0  0  0  0
    4.2236   49.6238   28.2764 C   0  0  0  0  0  0  0  0  0  0  0  0
    4.2206   48.8219   30.6402 C   0  0  0  0  0  0  0  0  0  0  0  0
    4.8185   49.8521   31.4069 C   0  0  0  0  0  0  0  0  0  0  0  0
    3.1802   48.0258   31.2255 C   0  0  0  0  0  0  0  0  0  0  0  0
    4.4018   50.0296   32.7194 C   0  0  0  0  0  0  0  0  0  0  0  0
    2.8098   48.2422   32.5720 C   0  0  0  0  0  0  0  0  0  0  0  0
    2.4870   47.0156   30.4764 N   0  0  0  0  0  0  0  0  0  0  0  0
    4.8501   50.9512   33.6458 O   0  0  0  0  0  0  0  0  0  0  0  0
    3.4440   49.2552   33.2790 C   0  0  0  0  0  0  0  0  0  0  0  0
    2.0769   45.8615   31.1030 O   0  0  0  0  0  0  0  0  0  0  0  0
    2.0488   47.2692   29.3356 O   0  0  0  0  0  0  0  0  0  0  0  0
    4.1252   50.7409   34.8653 C   0  0  0  0  0  0  0  0  0  0  0  0
    3.2377   49.6492   34.5870 O   0  0  0  0  0  0  0  0  0  0  0  0
    8.8124   40.1844   34.2129 O   0  0  0  0  0  0  0  0  0  0  0  0
   11.2405   40.7948   33.3668 O   0  0  0  0  0  0  0  0  0  0  0  0
   10.9133   40.6866   31.9952 C   0  0  0  0  0  0  0  0  0  0  0  0
   11.5166   39.3787   31.4404 C   0  0  0  0  0  0  0  0  0  0  0  0
   12.7485   39.0849   32.0735 O   0  0  0  0  0  0  0  0  0  0  0  0
   10.6039   38.1884   31.6669 C   0  0  0  0  0  0  0  0  0  0  0  0
   12.9329   37.6776   32.0284 C   0  0  0  0  0  0  0  0  0  0  0  0
    9.6373   38.0938   30.6484 O   0  0  0  0  0  0  0  0  0  0  0  0
   11.5737   37.0141   31.7055 C   0  0  0  0  0  0  0  0  0  0  0  0
   13.4853   37.2120   33.3238 N   0  0  0  0  0  0  0  0  0  0  0  0
   11.6210   36.3379   30.4684 O   0  0  0  0  0  0  0  0  0  0  0  0
   14.4804   36.3319   33.5726 C   0  0  0  0  0  0  0  0  0  0  0  0
   13.1141   37.6275   34.5689 C   0  0  0  0  0  0  0  0  0  0  0  0
   15.2075   35.6152   32.6740 N   0  0  0  0  0  0  0  0  0  0  0  0
   14.6761   36.2307   34.9181 C   0  0  0  0  0  0  0  0  0  0  0  0
   13.8218   37.0451   35.5783 N   0  0  0  0  0  0  0  0  0  0  0  0
   16.1641   34.7600   33.1548 C   0  0  0  0  0  0  0  0  0  0  0  0
   15.6528   35.3507   35.4131 C   0  0  0  0  0  0  0  0  0  0  0  0
   16.3795   34.6315   34.5043 N   0  0  0  0  0  0  0  0  0  0  0  0
   15.9001   35.1933   36.8090 N   0  0  0  0  0  0  0  0  0  0  0  0
    8.9993   45.4382   33.6721 H   0  0  0  0  0  0  0  0  0  0  0  0
   10.7762   46.9370   33.0161 H   0  0  0  0  0  0  0  0  0  0  0  0
   11.0499   46.2278   34.4984 H   0  0  0  0  0  0  0  0  0  0  0  0
    9.3646   43.8355   31.4711 H   0  0  0  0  0  0  0  0  0  0  0  0
   10.7412   44.9081   31.1837 H   0  0  0  0  0  0  0  0  0  0  0  0
    7.0150   44.7143   31.5845 H   0  0  0  0  0  0  0  0  0  0  0  0
   10.3463   47.1874   30.4044 H   0  0  0  0  0  0  0  0  0  0  0  0
    5.4686   46.2791   30.5126 H   0  0  0  0  0  0  0  0  0  0  0  0
    8.7916   48.7697   29.3408 H   0  0  0  0  0  0  0  0  0  0  0  0
    4.4257   47.5719   28.8543 H   0  0  0  0  0  0  0  0  0  0  0  0
    3.1129   49.6203   28.2649 H   0  0  0  0  0  0  0  0  0  0  0  0
    4.5792   50.6331   28.5753 H   0  0  0  0  0  0  0  0  0  0  0  0
    4.5871   49.4109   27.2488 H   0  0  0  0  0  0  0  0  0  0  0  0
    5.6013   50.4794   30.9995 H   0  0  0  0  0  0  0  0  0  0  0  0
    2.0333   47.6546   33.0445 H   0  0  0  0  0  0  0  0  0  0  0  0
    4.8230   50.4682   35.6846 H   0  0  0  0  0  0  0  0  0  0  0  0
    3.5442   51.6496   35.1282 H   0  0  0  0  0  0  0  0  0  0  0  0
   11.3826   41.5438   31.4666 H   0  0  0  0  0  0  0  0  0  0  0  0
    9.8224   40.7224   31.7629 H   0  0  0  0  0  0  0  0  0  0  0  0
   11.6979   39.5036   30.3478 H   0  0  0  0  0  0  0  0  0  0  0  0
   10.1084   38.2786   32.6626 H   0  0  0  0  0  0  0  0  0  0  0  0
   13.6638   37.4473   31.2215 H   0  0  0  0  0  0  0  0  0  0  0  0
    8.9763   37.4191   30.9532 H   0  0  0  0  0  0  0  0  0  0  0  0
   11.2821   36.3054   32.5172 H   0  0  0  0  0  0  0  0  0  0  0  0
   10.8658   35.6935   30.4652 H   0  0  0  0  0  0  0  0  0  0  0  0
   12.3293   38.3523   34.7445 H   0  0  0  0  0  0  0  0  0  0  0  0
   16.7560   34.1777   32.4621 H   0  0  0  0  0  0  0  0  0  0  0  0
   15.3533   35.7361   37.5138 H   0  0  0  0  0  0  0  0  0  0  0  0
   16.6345   34.5300   37.1416 H   0  0  0  0  0  0  0  0  0  0  0  0
  1  2  2  0
  1  3  1  0
  3  4  1  0
  4  5  1  0
  6  1  1  0
  7  6  1  0
  6  8  1  0
  8  9  1  0
  9 10  2  0
 11  9  1  0
 10 12  1  0
 13 11  2  0
 12 14  2  0
 14 13  1  0
 14 15  1  0
 15 16  1  0
 16 17  1  0
 16 18  1  0
 18 19  2  0
 20 18  1  0
 19 21  1  0
 22 20  2  0
 20 23  1  0
 21 24  1  0
 21 25  2  0
 25 22  1  0
 23 26  1  0
 23 27  2  0
 24 28  1  0
 25 29  1  0
 28 29  1  0
  4 30  2  0
  4 31  1  0
 32 31  1  0
 32 33  1  0
 33 34  1  0
 33 35  1  0
 34 36  1  0
 35 37  1  0
 35 38  1  0
 38 36  1  0
 36 39  1  0
 38 40  1  0
 41 39  1  0
 42 39  1  0
 43 41  2  0
 41 44  1  0
 45 42  2  0
 46 43  1  0
 44 47  2  0
 44 45  1  0
 48 46  2  0
 48 47  1  0
 47 49  1  0
  6 50  1  1
  7 51  1  0
  7 52  1  0
  8 53  1  0
  8 54  1  0
 10 55  1  0
 11 56  1  0
 12 57  1  0
 13 58  1  0
 16 59  1  6
 17 60  1  0
 17 61  1  0
 17 62  1  0
 19 63  1  0
 22 64  1  0
 28 65  1  0
 28 66  1  0
 32 67  1  0
 32 68  1  0
 33 69  1  0
 35 70  1  0
 36 71  1  0
 37 72  1  0
 38 73  1  0
 40 74  1  0
 42 75  1  0
 46 76  1  0
 49 77  1  0
 49 78  1  0
M  CHG  3   5  -1  23   1  26  -1
M  END
>  <EmbedRMS>  (43) 
0.0823768926226

$$$$

     RDKit          3D

 78 83  0  0  0  0  0  0  0  0999 V2000
   10.2805   43.7663   33.8251 C   0  0  0  0  0  0  0  0  0  0  0  0
   11.4111   43.5918   34.3668 O   0  0  0  0  0  0  0  0  0  0  0  0
    9.3621   42.7247   33.7344 O   0  0  0  0  0  0  0  0  0  0  0  0
    9.8903   41.2264   34.2936 P   0  0  0  0  0  0  0  0  0  0  0  0
   10.3732   41.4564   35.8831 O   0  0  0  0  0  0  0  0  0  0  0  0
    9.9459   45.0735   33.2114 C   0  0  1  0  0  0  0  0  0  0  0  0
   11.0267   46.0291   33.4707 N   0  0  0  0  0  0  0  0  0  0  0  0
    9.7534   44.8539   31.6952 C   0  0  0  0  0  0  0  0  0  0  0  0
    8.7954   45.8413   31.0854 C   0  0  0  0  0  0  0  0  0  0  0  0
    7.4089   45.6003   31.1005 C   0  0  0  0  0  0  0  0  0  0  0  0
    9.2827   46.9873   30.4397 C   0  0  0  0  0  0  0  0  0  0  0  0
    6.5287   46.5004   30.4843 C   0  0  0  0  0  0  0  0  0  0  0  0
    8.4026   47.8887   29.8292 C   0  0  0  0  0  0  0  0  0  0  0  0
    7.0128   47.6527   29.8493 C   0  0  0  0  0  0  0  0  0  0  0  0
    6.0801   48.5159   29.2504 O   0  0  0  0  0  0  0  0  0  0  0  0
    6.3571   49.8030   28.6964 C   0  0  2  0  0  0  0  0  0  0  0  0
    6.6594   50.8275   29.7988 C   0  0  0  0  0  0  0  0  0  0  0  0
    5.1870   50.2501   27.8340 C   0  0  0  0  0  0  0  0  0  0  0  0
    5.4324   50.4986   26.4600 C   0  0  0  0  0  0  0  0  0  0  0  0
    3.8652   50.4708   28.3552 C   0  0  0  0  0  0  0  0  0  0  0  0
    4.3900   50.9635   25.6690 C   0  0  0  0  0  0  0  0  0  0  0  0
    2.8486   50.9589   27.5034 C   0  0  0  0  0  0  0  0  0  0  0  0
    3.5387   50.2237   29.7298 N   0  0  0  0  0  0  0  0  0  0  0  0
    4.4060   51.2729   24.3225 O   0  0  0  0  0  0  0  0  0  0  0  0
    3.1539   51.1866   26.1691 C   0  0  0  0  0  0  0  0  0  0  0  0
    3.6817   48.9621   30.2563 O   0  0  0  0  0  0  0  0  0  0  0  0
    2.8834   51.0714   30.3703 O   0  0  0  0  0  0  0  0  0  0  0  0
    3.0931   51.7183   23.9555 C   0  0  0  0  0  0  0  0  0  0  0  0
    2.3250   51.6478   25.1645 O   0  0  0  0  0  0  0  0  0  0  0  0
    8.8128   40.1841   34.2125 O   0  0  0  0  0  0  0  0  0  0  0  0
   11.2416   40.7945   33.3692 O   0  0  0  0  0  0  0  0  0  0  0  0
   10.9178   40.6904   31.9968 C   0  0  0  0  0  0  0  0  0  0  0  0
   11.5181   39.3813   31.4408 C   0  0  0  0  0  0  0  0  0  0  0  0
   12.7497   39.0870   32.0746 O   0  0  0  0  0  0  0  0  0  0  0  0
   10.6045   38.1891   31.6655 C   0  0  0  0  0  0  0  0  0  0  0  0
   12.9344   37.6801   32.0290 C   0  0  0  0  0  0  0  0  0  0  0  0
    9.6418   38.0758   30.6441 O   0  0  0  0  0  0  0  0  0  0  0  0
   11.5741   37.0170   31.7045 C   0  0  0  0  0  0  0  0  0  0  0  0
   13.4851   37.2125   33.3241 N   0  0  0  0  0  0  0  0  0  0  0  0
   11.6079   36.3407   30.4680 O   0  0  0  0  0  0  0  0  0  0  0  0
   14.4801   36.3321   33.5727 C   0  0  0  0  0  0  0  0  0  0  0  0
   13.1140   37.6277   34.5693 C   0  0  0  0  0  0  0  0  0  0  0  0
   15.2073   35.6155   32.6739 N   0  0  0  0  0  0  0  0  0  0  0  0
   14.6758   36.2306   34.9182 C   0  0  0  0  0  0  0  0  0  0  0  0
   13.8217   37.0450   35.5785 N   0  0  0  0  0  0  0  0  0  0  0  0
   16.1639   34.7602   33.1546 C   0  0  0  0  0  0  0  0  0  0  0  0
   15.6526   35.3506   35.4130 C   0  0  0  0  0  0  0  0  0  0  0  0
   16.3794   34.6316   34.5041 N   0  0  0  0  0  0  0  0  0  0  0  0
   15.9001   35.1933   36.8089 N   0  0  0  0  0  0  0  0  0  0  0  0
    8.9996   45.4381   33.6726 H   0  0  0  0  0  0  0  0  0  0  0  0
   11.0505   46.2277   34.4981 H   0  0  0  0  0  0  0  0  0  0  0  0
   10.7764   46.9368   33.0157 H   0  0  0  0  0  0  0  0  0  0  0  0
   10.7405   44.9069   31.1836 H   0  0  0  0  0  0  0  0  0  0  0  0
    9.3634   43.8353   31.4717 H   0  0  0  0  0  0  0  0  0  0  0  0
    7.0132   44.7157   31.5841 H   0  0  0  0  0  0  0  0  0  0  0  0
   10.3472   47.1842   30.4042 H   0  0  0  0  0  0  0  0  0  0  0  0
    5.4645   46.3023   30.5032 H   0  0  0  0  0  0  0  0  0  0  0  0
    8.8207   48.7546   29.3379 H   0  0  0  0  0  0  0  0  0  0  0  0
    7.2601   49.7259   28.0530 H   0  0  0  0  0  0  0  0  0  0  0  0
    5.8715   50.8282   30.5779 H   0  0  0  0  0  0  0  0  0  0  0  0
    6.7412   51.8462   29.3630 H   0  0  0  0  0  0  0  0  0  0  0  0
    7.6227   50.5898   30.2940 H   0  0  0  0  0  0  0  0  0  0  0  0
    6.4096   50.3474   26.0191 H   0  0  0  0  0  0  0  0  0  0  0  0
    1.8465   51.1397   27.8708 H   0  0  0  0  0  0  0  0  0  0  0  0
    2.6600   51.0448   23.1865 H   0  0  0  0  0  0  0  0  0  0  0  0
    3.1317   52.7647   23.5865 H   0  0  0  0  0  0  0  0  0  0  0  0
   11.3944   41.5458   31.4719 H   0  0  0  0  0  0  0  0  0  0  0  0
    9.8289   40.7385   31.7615 H   0  0  0  0  0  0  0  0  0  0  0  0
   11.6994   39.5068   30.3484 H   0  0  0  0  0  0  0  0  0  0  0  0
   10.1090   38.2634   32.6633 H   0  0  0  0  0  0  0  0  0  0  0  0
   13.6662   37.4515   31.2224 H   0  0  0  0  0  0  0  0  0  0  0  0
    8.9008   38.6923   30.8794 H   0  0  0  0  0  0  0  0  0  0  0  0
   11.2650   36.3082   32.5087 H   0  0  0  0  0  0  0  0  0  0  0  0
   12.1372   35.5140   30.6163 H   0  0  0  0  0  0  0  0  0  0  0  0
   12.3297   38.3529   34.7450 H   0  0  0  0  0  0  0  0  0  0  0  0
   16.7558   34.1781   32.4618 H   0  0  0  0  0  0  0  0  0  0  0  0
   15.3533   35.7360   37.5138 H   0  0  0  0  0  0  0  0  0  0  0  0
   16.6346   34.5300   37.1414 H   0  0  0  0  0  0  0  0  0  0  0  0
  1  2  2  0
  1  3  1  0
  3  4  1  0
  4  5  1  0
  6  1  1  0
  7  6  1  0
  6  8  1  0
  8  9  1  0
  9 10  2  0
 11  9  1  0
 10 12  1  0
 13 11  2  0
 12 14  2  0
 14 13  1  0
 14 15  1  0
 15 16  1  0
 16 17  1  0
 16 18  1  0
 18 19  2  0
 20 18  1  0
 19 21  1  0
 22 20  2  0
 20 23  1  0
 21 24  1  0
 21 25  2  0
 25 22  1  0
 23 26  1  0
 23 27  2  0
 24 28  1  0
 25 29  1  0
 28 29  1  0
  4 30  2  0
  4 31  1  0
 32 31  1  0
 32 33  1  0
 33 34  1  0
 33 35  1  0
 34 36  1  0
 35 37  1  0
 35 38  1  0
 38 36  1  0
 36 39  1  0
 38 40  1  0
 41 39  1  0
 42 39  1  0
 43 41  2  0
 41 44  1  0
 45 42  2  0
 46 43  1  0
 44 47  2  0
 44 45  1  0
 48 46  2  0
 48 47  1  0
 47 49  1  0
  6 50  1  1
  7 51  1  0
  7 52  1  0
  8 53  1  0
  8 54  1  0
 10 55  1  0
 11 56  1  0
 12 57  1  0
 13 58  1  0
 16 59  1  6
 17 60  1  0
 17 61  1  0
 17 62  1  0
 19 63  1  0
 22 64  1  0
 28 65  1  0
 28 66  1  0
 32 67  1  0
 32 68  1  0
 33 69  1  0
 35 70  1  0
 36 71  1  0
 37 72  1  0
 38 73  1  0
 40 74  1  0
 42 75  1  0
 46 76  1  0
 49 77  1  0
 49 78  1  0
M  CHG  3   5  -1  23   1  26  -1
M  END
>  <EmbedRMS>  (44) 
0.0826423477307

$$$$

     RDKit          3D

 78 83  0  0  0  0  0  0  0  0999 V2000
   10.2836   43.7661   33.8256 C   0  0  0  0  0  0  0  0  0  0  0  0
   11.4102   43.5930   34.3753 O   0  0  0  0  0  0  0  0  0  0  0  0
    9.3640   42.7252   33.7347 O   0  0  0  0  0  0  0  0  0  0  0  0
    9.8908   41.2264   34.2939 P   0  0  0  0  0  0  0  0  0  0  0  0
   10.3732   41.4559   35.8835 O   0  0  0  0  0  0  0  0  0  0  0  0
    9.9547   45.0694   33.2035 C   0  0  1  0  0  0  0  0  0  0  0  0
   11.0273   46.0321   33.4755 N   0  0  0  0  0  0  0  0  0  0  0  0
    9.7466   44.8479   31.6875 C   0  0  0  0  0  0  0  0  0  0  0  0
    8.7923   45.8407   31.0842 C   0  0  0  0  0  0  0  0  0  0  0  0
    7.4055   45.6018   31.0995 C   0  0  0  0  0  0  0  0  0  0  0  0
    9.2823   46.9878   30.4426 C   0  0  0  0  0  0  0  0  0  0  0  0
    6.5266   46.5036   30.4846 C   0  0  0  0  0  0  0  0  0  0  0  0
    8.4033   47.8903   29.8326 C   0  0  0  0  0  0  0  0  0  0  0  0
    7.0141   47.6520   29.8458 C   0  0  0  0  0  0  0  0  0  0  0  0
    6.0891   48.5192   29.2415 O   0  0  0  0  0  0  0  0  0  0  0  0
    6.4231   49.6802   28.4757 C   0  0  2  0  0  0  0  0  0  0  0  0
    5.1442   50.4659   28.1917 C   0  0  0  0  0  0  0  0  0  0  0  0
    7.0905   49.2845   27.1690 C   0  0  0  0  0  0  0  0  0  0  0  0
    6.5516   48.1982   26.4366 C   0  0  0  0  0  0  0  0  0  0  0  0
    8.2732   49.9378   26.6862 C   0  0  0  0  0  0  0  0  0  0  0  0
    7.2139   47.7764   25.2916 C   0  0  0  0  0  0  0  0  0  0  0  0
    8.9131   49.4526   25.5234 C   0  0  0  0  0  0  0  0  0  0  0  0
    8.8255   51.0883   27.3446 N   0  0  0  0  0  0  0  0  0  0  0  0
    6.8813   46.7414   24.4390 O   0  0  0  0  0  0  0  0  0  0  0  0
    8.3476   48.3733   24.8574 C   0  0  0  0  0  0  0  0  0  0  0  0
   10.1894   51.2656   27.3802 O   0  0  0  0  0  0  0  0  0  0  0  0
    8.0864   52.0383   27.6748 O   0  0  0  0  0  0  0  0  0  0  0  0
    7.8709   46.6871   23.4024 C   0  0  0  0  0  0  0  0  0  0  0  0
    8.7881   47.7466   23.7076 O   0  0  0  0  0  0  0  0  0  0  0  0
    8.8127   40.1847   34.2122 O   0  0  0  0  0  0  0  0  0  0  0  0
   11.2421   40.7941   33.3697 O   0  0  0  0  0  0  0  0  0  0  0  0
   10.9187   40.6911   31.9971 C   0  0  0  0  0  0  0  0  0  0  0  0
   11.5172   39.3815   31.4407 C   0  0  0  0  0  0  0  0  0  0  0  0
   12.7493   39.0856   32.0728 O   0  0  0  0  0  0  0  0  0  0  0  0
   10.6023   38.1908   31.6665 C   0  0  0  0  0  0  0  0  0  0  0  0
   12.9319   37.6781   32.0281 C   0  0  0  0  0  0  0  0  0  0  0  0
    9.6392   38.0798   30.6452 O   0  0  0  0  0  0  0  0  0  0  0  0
   11.5715   37.0166   31.7056 C   0  0  0  0  0  0  0  0  0  0  0  0
   13.4847   37.2121   33.3235 N   0  0  0  0  0  0  0  0  0  0  0  0
   11.6187   36.3384   30.4695 O   0  0  0  0  0  0  0  0  0  0  0  0
   14.4801   36.3321   33.5724 C   0  0  0  0  0  0  0  0  0  0  0  0
   13.1137   37.6275   34.5688 C   0  0  0  0  0  0  0  0  0  0  0  0
   15.2073   35.6153   32.6738 N   0  0  0  0  0  0  0  0  0  0  0  0
   14.6759   36.2308   34.9179 C   0  0  0  0  0  0  0  0  0  0  0  0
   13.8216   37.0452   35.5781 N   0  0  0  0  0  0  0  0  0  0  0  0
   16.1640   34.7602   33.1546 C   0  0  0  0  0  0  0  0  0  0  0  0
   15.6526   35.3508   35.4129 C   0  0  0  0  0  0  0  0  0  0  0  0
   16.3794   34.6317   34.5041 N   0  0  0  0  0  0  0  0  0  0  0  0
   15.8999   35.1935   36.8088 N   0  0  0  0  0  0  0  0  0  0  0  0
    9.0121   45.4316   33.6713 H   0  0  0  0  0  0  0  0  0  0  0  0
   10.7258   46.9687   33.1212 H   0  0  0  0  0  0  0  0  0  0  0  0
   11.8905   45.7658   32.9468 H   0  0  0  0  0  0  0  0  0  0  0  0
    9.3414   43.8328   31.4761 H   0  0  0  0  0  0  0  0  0  0  0  0
   10.7229   44.8813   31.1555 H   0  0  0  0  0  0  0  0  0  0  0  0
    7.0083   44.7171   31.5817 H   0  0  0  0  0  0  0  0  0  0  0  0
   10.3468   47.1855   30.4128 H   0  0  0  0  0  0  0  0  0  0  0  0
    5.4621   46.3069   30.5016 H   0  0  0  0  0  0  0  0  0  0  0  0
    8.8171   48.7664   29.3548 H   0  0  0  0  0  0  0  0  0  0  0  0
    7.0799   50.3239   29.0960 H   0  0  0  0  0  0  0  0  0  0  0  0
    4.4167   49.8407   27.6310 H   0  0  0  0  0  0  0  0  0  0  0  0
    4.6767   50.7794   29.1491 H   0  0  0  0  0  0  0  0  0  0  0  0
    5.3732   51.3757   27.5970 H   0  0  0  0  0  0  0  0  0  0  0  0
    5.6567   47.6837   26.7633 H   0  0  0  0  0  0  0  0  0  0  0  0
    9.8099   49.9194   25.1369 H   0  0  0  0  0  0  0  0  0  0  0  0
    8.3952   45.7087   23.4229 H   0  0  0  0  0  0  0  0  0  0  0  0
    7.3999   46.8614   22.4123 H   0  0  0  0  0  0  0  0  0  0  0  0
    9.8299   40.7410   31.7613 H   0  0  0  0  0  0  0  0  0  0  0  0
   11.3968   41.5460   31.4729 H   0  0  0  0  0  0  0  0  0  0  0  0
   11.6975   39.5067   30.3481 H   0  0  0  0  0  0  0  0  0  0  0  0
   10.1077   38.2648   32.6645 H   0  0  0  0  0  0  0  0  0  0  0  0
   13.6621   37.4467   31.2209 H   0  0  0  0  0  0  0  0  0  0  0  0
    8.8975   38.6944   30.8831 H   0  0  0  0  0  0  0  0  0  0  0  0
   11.2806   36.3073   32.5170 H   0  0  0  0  0  0  0  0  0  0  0  0
   10.8492   35.7110   30.4586 H   0  0  0  0  0  0  0  0  0  0  0  0
   12.3290   38.3524   34.7444 H   0  0  0  0  0  0  0  0  0  0  0  0
   16.7559   34.1780   32.4619 H   0  0  0  0  0  0  0  0  0  0  0  0
   16.6344   34.5301   37.1414 H   0  0  0  0  0  0  0  0  0  0  0  0
   15.3531   35.7362   37.5137 H   0  0  0  0  0  0  0  0  0  0  0  0
  1  2  2  0
  1  3  1  0
  3  4  1  0
  4  5  1  0
  6  1  1  0
  7  6  1  0
  6  8  1  0
  8  9  1  0
  9 10  2  0
 11  9  1  0
 10 12  1  0
 13 11  2  0
 12 14  2  0
 14 13  1  0
 14 15  1  0
 15 16  1  0
 16 17  1  0
 16 18  1  0
 18 19  2  0
 20 18  1  0
 19 21  1  0
 22 20  2  0
 20 23  1  0
 21 24  1  0
 21 25  2  0
 25 22  1  0
 23 26  1  0
 23 27  2  0
 24 28  1  0
 25 29  1  0
 28 29  1  0
  4 30  2  0
  4 31  1  0
 32 31  1  0
 32 33  1  0
 33 34  1  0
 33 35  1  0
 34 36  1  0
 35 37  1  0
 35 38  1  0
 38 36  1  0
 36 39  1  0
 38 40  1  0
 41 39  1  0
 42 39  1  0
 43 41  2  0
 41 44  1  0
 45 42  2  0
 46 43  1  0
 44 47  2  0
 44 45  1  0
 48 46  2  0
 48 47  1  0
 47 49  1  0
  6 50  1  1
  7 51  1  0
  7 52  1  0
  8 53  1  0
  8 54  1  0
 10 55  1  0
 11 56  1  0
 12 57  1  0
 13 58  1  0
 16 59  1  1
 17 60  1  0
 17 61  1  0
 17 62  1  0
 19 63  1  0
 22 64  1  0
 28 65  1  0
 28 66  1  0
 32 67  1  0
 32 68  1  0
 33 69  1  0
 35 70  1  0
 36 71  1  0
 37 72  1  0
 38 73  1  0
 40 74  1  0
 42 75  1  0
 46 76  1  0
 49 77  1  0
 49 78  1  0
M  CHG  3   5  -1  23   1  26  -1
M  END
>  <EmbedRMS>  (45) 
0.0829534442332

$$$$

     RDKit          3D

 78 83  0  0  0  0  0  0  0  0999 V2000
   10.2835   43.7662   33.8256 C   0  0  0  0  0  0  0  0  0  0  0  0
   11.4102   43.5930   34.3752 O   0  0  0  0  0  0  0  0  0  0  0  0
    9.3637   42.7256   33.7349 O   0  0  0  0  0  0  0  0  0  0  0  0
    9.8902   41.2267   34.2942 P   0  0  0  0  0  0  0  0  0  0  0  0
   10.3736   41.4561   35.8836 O   0  0  0  0  0  0  0  0  0  0  0  0
    9.9548   45.0695   33.2034 C   0  0  1  0  0  0  0  0  0  0  0  0
   11.0274   46.0322   33.4759 N   0  0  0  0  0  0  0  0  0  0  0  0
    9.7472   44.8482   31.6874 C   0  0  0  0  0  0  0  0  0  0  0  0
    8.7927   45.8406   31.0840 C   0  0  0  0  0  0  0  0  0  0  0  0
    7.4061   45.6013   31.0995 C   0  0  0  0  0  0  0  0  0  0  0  0
    9.2817   46.9879   30.4425 C   0  0  0  0  0  0  0  0  0  0  0  0
    6.5241   46.5014   30.4858 C   0  0  0  0  0  0  0  0  0  0  0  0
    8.4004   47.8883   29.8335 C   0  0  0  0  0  0  0  0  0  0  0  0
    7.0184   47.6562   29.8437 C   0  0  0  0  0  0  0  0  0  0  0  0
    6.1872   48.5986   29.2153 O   0  0  0  0  0  0  0  0  0  0  0  0
    4.7761   48.4777   29.0172 C   0  0  2  0  0  0  0  0  0  0  0  0
    4.4767   47.4594   27.9088 C   0  0  0  0  0  0  0  0  0  0  0  0
    4.2181   49.8405   28.6478 C   0  0  0  0  0  0  0  0  0  0  0  0
    4.7307   50.4939   27.4991 C   0  0  0  0  0  0  0  0  0  0  0  0
    3.1667   50.4671   29.3958 C   0  0  0  0  0  0  0  0  0  0  0  0
    4.1650   51.7022   27.1134 C   0  0  0  0  0  0  0  0  0  0  0  0
    2.6185   51.6896   28.9455 C   0  0  0  0  0  0  0  0  0  0  0  0
    2.6711   49.9000   30.6166 N   0  0  0  0  0  0  0  0  0  0  0  0
    4.4945   52.4992   26.0340 O   0  0  0  0  0  0  0  0  0  0  0  0
    3.1495   52.2715   27.8023 C   0  0  0  0  0  0  0  0  0  0  0  0
    3.5410   49.6417   31.6507 O   0  0  0  0  0  0  0  0  0  0  0  0
    1.4439   49.8932   30.8448 O   0  0  0  0  0  0  0  0  0  0  0  0
    3.6288   53.6426   26.0478 C   0  0  0  0  0  0  0  0  0  0  0  0
    2.7861   53.4574   27.1935 O   0  0  0  0  0  0  0  0  0  0  0  0
    8.8121   40.1850   34.2131 O   0  0  0  0  0  0  0  0  0  0  0  0
   11.2404   40.7941   33.3690 O   0  0  0  0  0  0  0  0  0  0  0  0
   10.9143   40.6898   31.9972 C   0  0  0  0  0  0  0  0  0  0  0  0
   11.5261   39.3885   31.4376 C   0  0  0  0  0  0  0  0  0  0  0  0
   12.7504   39.0888   32.0816 O   0  0  0  0  0  0  0  0  0  0  0  0
   10.6114   38.1910   31.6460 C   0  0  0  0  0  0  0  0  0  0  0  0
   12.9357   37.6812   32.0303 C   0  0  0  0  0  0  0  0  0  0  0  0
    9.6145   38.0859   30.6533 O   0  0  0  0  0  0  0  0  0  0  0  0
   11.5769   37.0148   31.7012 C   0  0  0  0  0  0  0  0  0  0  0  0
   13.4849   37.2112   33.3247 N   0  0  0  0  0  0  0  0  0  0  0  0
   11.6192   36.3261   30.4724 O   0  0  0  0  0  0  0  0  0  0  0  0
   14.4802   36.3313   33.5730 C   0  0  0  0  0  0  0  0  0  0  0  0
   13.1141   37.6268   34.5698 C   0  0  0  0  0  0  0  0  0  0  0  0
   15.2075   35.6151   32.6741 N   0  0  0  0  0  0  0  0  0  0  0  0
   14.6761   36.2300   34.9184 C   0  0  0  0  0  0  0  0  0  0  0  0
   13.8221   37.0445   35.5789 N   0  0  0  0  0  0  0  0  0  0  0  0
   16.1642   34.7600   33.1547 C   0  0  0  0  0  0  0  0  0  0  0  0
   15.6530   35.3503   35.4131 C   0  0  0  0  0  0  0  0  0  0  0  0
   16.3798   34.6314   34.5042 N   0  0  0  0  0  0  0  0  0  0  0  0
   15.9004   35.1930   36.8090 N   0  0  0  0  0  0  0  0  0  0  0  0
    9.0121   45.4318   33.6710 H   0  0  0  0  0  0  0  0  0  0  0  0
   11.8908   45.7659   32.9475 H   0  0  0  0  0  0  0  0  0  0  0  0
   10.7261   46.9688   33.1214 H   0  0  0  0  0  0  0  0  0  0  0  0
   10.7237   44.8822   31.1557 H   0  0  0  0  0  0  0  0  0  0  0  0
    9.3427   43.8329   31.4757 H   0  0  0  0  0  0  0  0  0  0  0  0
    7.0106   44.7168   31.5839 H   0  0  0  0  0  0  0  0  0  0  0  0
   10.3459   47.1867   30.4114 H   0  0  0  0  0  0  0  0  0  0  0  0
    5.4668   46.2855   30.5249 H   0  0  0  0  0  0  0  0  0  0  0  0
    8.7942   48.7707   29.3451 H   0  0  0  0  0  0  0  0  0  0  0  0
    4.3012   48.1075   29.9440 H   0  0  0  0  0  0  0  0  0  0  0  0
    5.0160   47.7191   26.9738 H   0  0  0  0  0  0  0  0  0  0  0  0
    4.7956   46.4431   28.2178 H   0  0  0  0  0  0  0  0  0  0  0  0
    3.3854   47.4303   27.7021 H   0  0  0  0  0  0  0  0  0  0  0  0
    5.5374   50.0674   26.9169 H   0  0  0  0  0  0  0  0  0  0  0  0
    1.8219   52.1828   29.4876 H   0  0  0  0  0  0  0  0  0  0  0  0
    3.0162   53.6717   25.1224 H   0  0  0  0  0  0  0  0  0  0  0  0
    4.2238   54.5735   26.1563 H   0  0  0  0  0  0  0  0  0  0  0  0
    9.8233   40.7191   31.7647 H   0  0  0  0  0  0  0  0  0  0  0  0
   11.3779   41.5526   31.4726 H   0  0  0  0  0  0  0  0  0  0  0  0
   11.7283   39.5312   30.3515 H   0  0  0  0  0  0  0  0  0  0  0  0
   10.1127   38.2734   32.6376 H   0  0  0  0  0  0  0  0  0  0  0  0
   13.6692   37.4566   31.2242 H   0  0  0  0  0  0  0  0  0  0  0  0
   10.0533   38.1118   29.7635 H   0  0  0  0  0  0  0  0  0  0  0  0
   11.2607   36.3148   32.5102 H   0  0  0  0  0  0  0  0  0  0  0  0
   12.1496   35.5023   30.6324 H   0  0  0  0  0  0  0  0  0  0  0  0
   12.3301   38.3524   34.7455 H   0  0  0  0  0  0  0  0  0  0  0  0
   16.7563   34.1781   32.4619 H   0  0  0  0  0  0  0  0  0  0  0  0
   15.3536   35.7356   37.5140 H   0  0  0  0  0  0  0  0  0  0  0  0
   16.6351   34.5298   37.1415 H   0  0  0  0  0  0  0  0  0  0  0  0
  1  2  2  0
  1  3  1  0
  3  4  1  0
  4  5  1  0
  6  1  1  0
  7  6  1  0
  6  8  1  0
  8  9  1  0
  9 10  2  0
 11  9  1  0
 10 12  1  0
 13 11  2  0
 12 14  2  0
 14 13  1  0
 14 15  1  0
 15 16  1  0
 16 17  1  0
 16 18  1  0
 18 19  2  0
 20 18  1  0
 19 21  1  0
 22 20  2  0
 20 23  1  0
 21 24  1  0
 21 25  2  0
 25 22  1  0
 23 26  1  0
 23 27  2  0
 24 28  1  0
 25 29  1  0
 28 29  1  0
  4 30  2  0
  4 31  1  0
 32 31  1  0
 32 33  1  0
 33 34  1  0
 33 35  1  0
 34 36  1  0
 35 37  1  0
 35 38  1  0
 38 36  1  0
 36 39  1  0
 38 40  1  0
 41 39  1  0
 42 39  1  0
 43 41  2  0
 41 44  1  0
 45 42  2  0
 46 43  1  0
 44 47  2  0
 44 45  1  0
 48 46  2  0
 48 47  1  0
 47 49  1  0
  6 50  1  1
  7 51  1  0
  7 52  1  0
  8 53  1  0
  8 54  1  0
 10 55  1  0
 11 56  1  0
 12 57  1  0
 13 58  1  0
 16 59  1  1
 17 60  1  0
 17 61  1  0
 17 62  1  0
 19 63  1  0
 22 64  1  0
 28 65  1  0
 28 66  1  0
 32 67  1  0
 32 68  1  0
 33 69  1  0
 35 70  1  0
 36 71  1  0
 37 72  1  0
 38 73  1  0
 40 74  1  0
 42 75  1  0
 46 76  1  0
 49 77  1  0
 49 78  1  0
M  CHG  3   5  -1  23   1  26  -1
M  END
>  <EmbedRMS>  (46) 
0.0816054891784

$$$$

     RDKit          3D

 78 83  0  0  0  0  0  0  0  0999 V2000
   10.2835   43.7661   33.8256 C   0  0  0  0  0  0  0  0  0  0  0  0
   11.4102   43.5930   34.3753 O   0  0  0  0  0  0  0  0  0  0  0  0
    9.3639   42.7253   33.7347 O   0  0  0  0  0  0  0  0  0  0  0  0
    9.8907   41.2265   34.2939 P   0  0  0  0  0  0  0  0  0  0  0  0
   10.3733   41.4558   35.8835 O   0  0  0  0  0  0  0  0  0  0  0  0
    9.9547   45.0694   33.2035 C   0  0  1  0  0  0  0  0  0  0  0  0
   11.0273   46.0321   33.4756 N   0  0  0  0  0  0  0  0  0  0  0  0
    9.7466   44.8480   31.6876 C   0  0  0  0  0  0  0  0  0  0  0  0
    8.7923   45.8408   31.0844 C   0  0  0  0  0  0  0  0  0  0  0  0
    7.4055   45.6017   31.0993 C   0  0  0  0  0  0  0  0  0  0  0  0
    9.2822   46.9878   30.4425 C   0  0  0  0  0  0  0  0  0  0  0  0
    6.5267   46.5035   30.4841 C   0  0  0  0  0  0  0  0  0  0  0  0
    8.4031   47.8900   29.8322 C   0  0  0  0  0  0  0  0  0  0  0  0
    7.0142   47.6525   29.8464 C   0  0  0  0  0  0  0  0  0  0  0  0
    6.0893   48.5201   29.2428 O   0  0  0  0  0  0  0  0  0  0  0  0
    6.4181   49.7063   28.5135 C   0  0  2  0  0  0  0  0  0  0  0  0
    5.1313   50.4745   28.2215 C   0  0  0  0  0  0  0  0  0  0  0  0
    7.1186   49.3709   27.2069 C   0  0  0  0  0  0  0  0  0  0  0  0
    6.7019   48.2266   26.4822 C   0  0  0  0  0  0  0  0  0  0  0  0
    8.1137   50.2326   26.6400 C   0  0  0  0  0  0  0  0  0  0  0  0
    7.2917   47.9690   25.2515 C   0  0  0  0  0  0  0  0  0  0  0  0
    8.6684   49.9281   25.3769 C   0  0  0  0  0  0  0  0  0  0  0  0
    8.5512   51.4196   27.3148 N   0  0  0  0  0  0  0  0  0  0  0  0
    7.0488   46.9204   24.3854 O   0  0  0  0  0  0  0  0  0  0  0  0
    8.2331   48.7837   24.7221 C   0  0  0  0  0  0  0  0  0  0  0  0
    9.1680   51.3227   28.5402 O   0  0  0  0  0  0  0  0  0  0  0  0
    8.6278   52.4947   26.6854 O   0  0  0  0  0  0  0  0  0  0  0  0
    7.8954   47.0877   23.2399 C   0  0  0  0  0  0  0  0  0  0  0  0
    8.6342   48.2901   23.4956 O   0  0  0  0  0  0  0  0  0  0  0  0
    8.8126   40.1847   34.2122 O   0  0  0  0  0  0  0  0  0  0  0  0
   11.2418   40.7943   33.3694 O   0  0  0  0  0  0  0  0  0  0  0  0
   10.9179   40.6904   31.9970 C   0  0  0  0  0  0  0  0  0  0  0  0
   11.5181   39.3814   31.4408 C   0  0  0  0  0  0  0  0  0  0  0  0
   12.7497   39.0870   32.0745 O   0  0  0  0  0  0  0  0  0  0  0  0
   10.6045   38.1891   31.6655 C   0  0  0  0  0  0  0  0  0  0  0  0
   12.9344   37.6801   32.0290 C   0  0  0  0  0  0  0  0  0  0  0  0
    9.6418   38.0758   30.6441 O   0  0  0  0  0  0  0  0  0  0  0  0
   11.5741   37.0170   31.7045 C   0  0  0  0  0  0  0  0  0  0  0  0
   13.4851   37.2125   33.3241 N   0  0  0  0  0  0  0  0  0  0  0  0
   11.6079   36.3407   30.4680 O   0  0  0  0  0  0  0  0  0  0  0  0
   14.4801   36.3321   33.5727 C   0  0  0  0  0  0  0  0  0  0  0  0
   13.1140   37.6277   34.5693 C   0  0  0  0  0  0  0  0  0  0  0  0
   15.2073   35.6155   32.6739 N   0  0  0  0  0  0  0  0  0  0  0  0
   14.6758   36.2306   34.9182 C   0  0  0  0  0  0  0  0  0  0  0  0
   13.8217   37.0451   35.5785 N   0  0  0  0  0  0  0  0  0  0  0  0
   16.1639   34.7602   33.1546 C   0  0  0  0  0  0  0  0  0  0  0  0
   15.6526   35.3506   35.4130 C   0  0  0  0  0  0  0  0  0  0  0  0
   16.3794   34.6316   34.5041 N   0  0  0  0  0  0  0  0  0  0  0  0
   15.9001   35.1933   36.8089 N   0  0  0  0  0  0  0  0  0  0  0  0
    9.0121   45.4316   33.6714 H   0  0  0  0  0  0  0  0  0  0  0  0
   11.8906   45.7658   32.9469 H   0  0  0  0  0  0  0  0  0  0  0  0
   10.7259   46.9687   33.1212 H   0  0  0  0  0  0  0  0  0  0  0  0
    9.3414   43.8329   31.4762 H   0  0  0  0  0  0  0  0  0  0  0  0
   10.7229   44.8813   31.1556 H   0  0  0  0  0  0  0  0  0  0  0  0
    7.0082   44.7170   31.5813 H   0  0  0  0  0  0  0  0  0  0  0  0
   10.3468   47.1849   30.4116 H   0  0  0  0  0  0  0  0  0  0  0  0
    5.4623   46.3068   30.5010 H   0  0  0  0  0  0  0  0  0  0  0  0
    8.8160   48.7632   29.3500 H   0  0  0  0  0  0  0  0  0  0  0  0
    7.0419   50.3509   29.1627 H   0  0  0  0  0  0  0  0  0  0  0  0
    4.6230   50.7323   29.1749 H   0  0  0  0  0  0  0  0  0  0  0  0
    5.3606   51.4166   27.6787 H   0  0  0  0  0  0  0  0  0  0  0  0
    4.4406   49.8588   27.6060 H   0  0  0  0  0  0  0  0  0  0  0  0
    5.9331   47.5642   26.8591 H   0  0  0  0  0  0  0  0  0  0  0  0
    9.4211   50.5622   24.9260 H   0  0  0  0  0  0  0  0  0  0  0  0
    8.5880   46.2253   23.1449 H   0  0  0  0  0  0  0  0  0  0  0  0
    7.2814   47.2032   22.3222 H   0  0  0  0  0  0  0  0  0  0  0  0
   11.3945   41.5459   31.4722 H   0  0  0  0  0  0  0  0  0  0  0  0
    9.8289   40.7385   31.7617 H   0  0  0  0  0  0  0  0  0  0  0  0
   11.6994   39.5069   30.3484 H   0  0  0  0  0  0  0  0  0  0  0  0
   10.1090   38.2635   32.6632 H   0  0  0  0  0  0  0  0  0  0  0  0
   13.6662   37.4515   31.2224 H   0  0  0  0  0  0  0  0  0  0  0  0
    8.9010   38.6925   30.8793 H   0  0  0  0  0  0  0  0  0  0  0  0
   11.2650   36.3083   32.5087 H   0  0  0  0  0  0  0  0  0  0  0  0
   12.1372   35.5140   30.6163 H   0  0  0  0  0  0  0  0  0  0  0  0
   12.3297   38.3530   34.7450 H   0  0  0  0  0  0  0  0  0  0  0  0
   16.7558   34.1781   32.4619 H   0  0  0  0  0  0  0  0  0  0  0  0
   16.6346   34.5300   37.1414 H   0  0  0  0  0  0  0  0  0  0  0  0
   15.3533   35.7360   37.5138 H   0  0  0  0  0  0  0  0  0  0  0  0
  1  2  2  0
  1  3  1  0
  3  4  1  0
  4  5  1  0
  6  1  1  0
  7  6  1  0
  6  8  1  0
  8  9  1  0
  9 10  2  0
 11  9  1  0
 10 12  1  0
 13 11  2  0
 12 14  2  0
 14 13  1  0
 14 15  1  0
 15 16  1  0
 16 17  1  0
 16 18  1  0
 18 19  2  0
 20 18  1  0
 19 21  1  0
 22 20  2  0
 20 23  1  0
 21 24  1  0
 21 25  2  0
 25 22  1  0
 23 26  1  0
 23 27  2  0
 24 28  1  0
 25 29  1  0
 28 29  1  0
  4 30  2  0
  4 31  1  0
 32 31  1  0
 32 33  1  0
 33 34  1  0
 33 35  1  0
 34 36  1  0
 35 37  1  0
 35 38  1  0
 38 36  1  0
 36 39  1  0
 38 40  1  0
 41 39  1  0
 42 39  1  0
 43 41  2  0
 41 44  1  0
 45 42  2  0
 46 43  1  0
 44 47  2  0
 44 45  1  0
 48 46  2  0
 48 47  1  0
 47 49  1  0
  6 50  1  1
  7 51  1  0
  7 52  1  0
  8 53  1  0
  8 54  1  0
 10 55  1  0
 11 56  1  0
 12 57  1  0
 13 58  1  0
 16 59  1  1
 17 60  1  0
 17 61  1  0
 17 62  1  0
 19 63  1  0
 22 64  1  0
 28 65  1  0
 28 66  1  0
 32 67  1  0
 32 68  1  0
 33 69  1  0
 35 70  1  0
 36 71  1  0
 37 72  1  0
 38 73  1  0
 40 74  1  0
 42 75  1  0
 46 76  1  0
 49 77  1  0
 49 78  1  0
M  CHG  3   5  -1  23   1  26  -1
M  END
>  <EmbedRMS>  (47) 
0.082837018435

$$$$

     RDKit          3D

 78 83  0  0  0  0  0  0  0  0999 V2000
   10.2803   43.7665   33.8252 C   0  0  0  0  0  0  0  0  0  0  0  0
   11.4110   43.5919   34.3667 O   0  0  0  0  0  0  0  0  0  0  0  0
    9.3616   42.7252   33.7349 O   0  0  0  0  0  0  0  0  0  0  0  0
    9.8896   41.2269   34.2946 P   0  0  0  0  0  0  0  0  0  0  0  0
   10.3732   41.4568   35.8838 O   0  0  0  0  0  0  0  0  0  0  0  0
    9.9458   45.0736   33.2112 C   0  0  1  0  0  0  0  0  0  0  0  0
   11.0265   46.0293   33.4705 N   0  0  0  0  0  0  0  0  0  0  0  0
    9.7537   44.8536   31.6950 C   0  0  0  0  0  0  0  0  0  0  0  0
    8.7956   45.8405   31.0846 C   0  0  0  0  0  0  0  0  0  0  0  0
    7.4093   45.6003   31.1004 C   0  0  0  0  0  0  0  0  0  0  0  0
    9.2824   46.9870   30.4401 C   0  0  0  0  0  0  0  0  0  0  0  0
    6.5295   46.5012   30.4855 C   0  0  0  0  0  0  0  0  0  0  0  0
    8.4023   47.8887   29.8307 C   0  0  0  0  0  0  0  0  0  0  0  0
    7.0124   47.6527   29.8475 C   0  0  0  0  0  0  0  0  0  0  0  0
    6.0698   48.5198   29.2643 O   0  0  0  0  0  0  0  0  0  0  0  0
    6.3231   49.7364   28.5486 C   0  0  2  0  0  0  0  0  0  0  0  0
    6.9314   49.4211   27.1727 C   0  0  0  0  0  0  0  0  0  0  0  0
    7.0735   50.7531   29.4108 C   0  0  0  0  0  0  0  0  0  0  0  0
    8.2258   51.4219   28.9137 C   0  0  0  0  0  0  0  0  0  0  0  0
    6.6402   51.0302   30.7534 C   0  0  0  0  0  0  0  0  0  0  0  0
    8.9125   52.2846   29.7570 C   0  0  0  0  0  0  0  0  0  0  0  0
    7.3916   51.9085   31.5677 C   0  0  0  0  0  0  0  0  0  0  0  0
    5.4572   50.4271   31.3051 N   0  0  0  0  0  0  0  0  0  0  0  0
   10.0521   53.0188   29.4894 O   0  0  0  0  0  0  0  0  0  0  0  0
    8.5165   52.5138   31.0284 C   0  0  0  0  0  0  0  0  0  0  0  0
    4.2895   50.3903   30.5794 O   0  0  0  0  0  0  0  0  0  0  0  0
    5.4263   50.1025   32.5102 O   0  0  0  0  0  0  0  0  0  0  0  0
   10.3913   53.7561   30.6717 C   0  0  0  0  0  0  0  0  0  0  0  0
    9.3843   53.4047   31.6301 O   0  0  0  0  0  0  0  0  0  0  0  0
    8.8122   40.1844   34.2135 O   0  0  0  0  0  0  0  0  0  0  0  0
   11.2401   40.7950   33.3698 O   0  0  0  0  0  0  0  0  0  0  0  0
   10.9143   40.6914   31.9981 C   0  0  0  0  0  0  0  0  0  0  0  0
   11.5269   39.3912   31.4385 C   0  0  0  0  0  0  0  0  0  0  0  0
   12.7519   39.0911   32.0837 O   0  0  0  0  0  0  0  0  0  0  0  0
   10.6113   38.1932   31.6451 C   0  0  0  0  0  0  0  0  0  0  0  0
   12.9413   37.6838   32.0297 C   0  0  0  0  0  0  0  0  0  0  0  0
    9.6064   38.0878   30.6599 O   0  0  0  0  0  0  0  0  0  0  0  0
   11.5822   37.0197   31.6877 C   0  0  0  0  0  0  0  0  0  0  0  0
   13.4840   37.2104   33.3254 N   0  0  0  0  0  0  0  0  0  0  0  0
   11.6179   36.3072   30.4690 O   0  0  0  0  0  0  0  0  0  0  0  0
   14.4797   36.3309   33.5738 C   0  0  0  0  0  0  0  0  0  0  0  0
   13.1136   37.6269   34.5702 C   0  0  0  0  0  0  0  0  0  0  0  0
   15.2074   35.6152   32.6747 N   0  0  0  0  0  0  0  0  0  0  0  0
   14.6756   36.2298   34.9190 C   0  0  0  0  0  0  0  0  0  0  0  0
   13.8217   37.0445   35.5793 N   0  0  0  0  0  0  0  0  0  0  0  0
   16.1643   34.7603   33.1551 C   0  0  0  0  0  0  0  0  0  0  0  0
   15.6528   35.3503   35.4136 C   0  0  0  0  0  0  0  0  0  0  0  0
   16.3798   34.6316   34.5046 N   0  0  0  0  0  0  0  0  0  0  0  0
   15.9004   35.1930   36.8094 N   0  0  0  0  0  0  0  0  0  0  0  0
    8.9994   45.4383   33.6721 H   0  0  0  0  0  0  0  0  0  0  0  0
   11.0502   46.2280   34.4979 H   0  0  0  0  0  0  0  0  0  0  0  0
   10.7761   46.9369   33.0155 H   0  0  0  0  0  0  0  0  0  0  0  0
   10.7408   44.9068   31.1836 H   0  0  0  0  0  0  0  0  0  0  0  0
    9.3639   43.8349   31.4716 H   0  0  0  0  0  0  0  0  0  0  0  0
    7.0133   44.7164   31.5851 H   0  0  0  0  0  0  0  0  0  0  0  0
   10.3466   47.1861   30.4080 H   0  0  0  0  0  0  0  0  0  0  0  0
    5.4650   46.3047   30.5082 H   0  0  0  0  0  0  0  0  0  0  0  0
    8.8231   48.7589   29.3557 H   0  0  0  0  0  0  0  0  0  0  0  0
    5.3343   50.1890   28.3255 H   0  0  0  0  0  0  0  0  0  0  0  0
    7.9621   49.0233   27.2568 H   0  0  0  0  0  0  0  0  0  0  0  0
    6.3087   48.6578   26.6596 H   0  0  0  0  0  0  0  0  0  0  0  0
    6.9395   50.3321   26.5372 H   0  0  0  0  0  0  0  0  0  0  0  0
    8.6017   51.2721   27.9123 H   0  0  0  0  0  0  0  0  0  0  0  0
    7.0940   52.1277   32.5851 H   0  0  0  0  0  0  0  0  0  0  0  0
   11.3936   53.4519   31.0398 H   0  0  0  0  0  0  0  0  0  0  0  0
   10.3609   54.8467   30.4662 H   0  0  0  0  0  0  0  0  0  0  0  0
    9.8233   40.7201   31.7652 H   0  0  0  0  0  0  0  0  0  0  0  0
   11.3775   41.5548   31.4741 H   0  0  0  0  0  0  0  0  0  0  0  0
   11.7312   39.5362   30.3532 H   0  0  0  0  0  0  0  0  0  0  0  0
   10.1202   38.2696   32.6410 H   0  0  0  0  0  0  0  0  0  0  0  0
   13.6850   37.4639   31.2321 H   0  0  0  0  0  0  0  0  0  0  0  0
   10.0251   38.1792   29.7654 H   0  0  0  0  0  0  0  0  0  0  0  0
   11.2757   36.3135   32.4908 H   0  0  0  0  0  0  0  0  0  0  0  0
   11.9838   36.9111   29.7708 H   0  0  0  0  0  0  0  0  0  0  0  0
   12.3307   38.3536   34.7458 H   0  0  0  0  0  0  0  0  0  0  0  0
   16.7566   34.1787   32.4623 H   0  0  0  0  0  0  0  0  0  0  0  0
   16.6353   34.5301   37.1419 H   0  0  0  0  0  0  0  0  0  0  0  0
   15.3535   35.7355   37.5144 H   0  0  0  0  0  0  0  0  0  0  0  0
  1  2  2  0
  1  3  1  0
  3  4  1  0
  4  5  1  0
  6  1  1  0
  7  6  1  0
  6  8  1  0
  8  9  1  0
  9 10  2  0
 11  9  1  0
 10 12  1  0
 13 11  2  0
 12 14  2  0
 14 13  1  0
 14 15  1  0
 15 16  1  0
 16 17  1  0
 16 18  1  0
 18 19  2  0
 20 18  1  0
 19 21  1  0
 22 20  2  0
 20 23  1  0
 21 24  1  0
 21 25  2  0
 25 22  1  0
 23 26  1  0
 23 27  2  0
 24 28  1  0
 25 29  1  0
 28 29  1  0
  4 30  2  0
  4 31  1  0
 32 31  1  0
 32 33  1  0
 33 34  1  0
 33 35  1  0
 34 36  1  0
 35 37  1  0
 35 38  1  0
 38 36  1  0
 36 39  1  0
 38 40  1  0
 41 39  1  0
 42 39  1  0
 43 41  2  0
 41 44  1  0
 45 42  2  0
 46 43  1  0
 44 47  2  0
 44 45  1  0
 48 46  2  0
 48 47  1  0
 47 49  1  0
  6 50  1  1
  7 51  1  0
  7 52  1  0
  8 53  1  0
  8 54  1  0
 10 55  1  0
 11 56  1  0
 12 57  1  0
 13 58  1  0
 16 59  1  6
 17 60  1  0
 17 61  1  0
 17 62  1  0
 19 63  1  0
 22 64  1  0
 28 65  1  0
 28 66  1  0
 32 67  1  0
 32 68  1  0
 33 69  1  0
 35 70  1  0
 36 71  1  0
 37 72  1  0
 38 73  1  0
 40 74  1  0
 42 75  1  0
 46 76  1  0
 49 77  1  0
 49 78  1  0
M  CHG  3   5  -1  23   1  26  -1
M  END
>  <EmbedRMS>  (48) 
0.0806518006321

$$$$

     RDKit          3D

 78 83  0  0  0  0  0  0  0  0999 V2000
   10.2806   43.7664   33.8251 C   0  0  0  0  0  0  0  0  0  0  0  0
   11.4117   43.5918   34.3658 O   0  0  0  0  0  0  0  0  0  0  0  0
    9.3618   42.7249   33.7353 O   0  0  0  0  0  0  0  0  0  0  0  0
    9.8898   41.2260   34.2935 P   0  0  0  0  0  0  0  0  0  0  0  0
   10.3730   41.4555   35.8830 O   0  0  0  0  0  0  0  0  0  0  0  0
    9.9464   45.0735   33.2110 C   0  0  1  0  0  0  0  0  0  0  0  0
   11.0283   46.0281   33.4696 N   0  0  0  0  0  0  0  0  0  0  0  0
    9.7534   44.8532   31.6947 C   0  0  0  0  0  0  0  0  0  0  0  0
    8.7954   45.8404   31.0837 C   0  0  0  0  0  0  0  0  0  0  0  0
    7.4088   45.5991   31.0977 C   0  0  0  0  0  0  0  0  0  0  0  0
    9.2827   46.9878   30.4399 C   0  0  0  0  0  0  0  0  0  0  0  0
    6.5284   46.5007   30.4844 C   0  0  0  0  0  0  0  0  0  0  0  0
    8.4027   47.8900   29.8305 C   0  0  0  0  0  0  0  0  0  0  0  0
    7.0124   47.6555   29.8533 C   0  0  0  0  0  0  0  0  0  0  0  0
    6.0796   48.5260   29.2650 O   0  0  0  0  0  0  0  0  0  0  0  0
    6.3570   49.8236   28.7373 C   0  0  2  0  0  0  0  0  0  0  0  0
    6.6477   50.8214   29.8638 C   0  0  0  0  0  0  0  0  0  0  0  0
    5.1869   50.2994   27.8934 C   0  0  0  0  0  0  0  0  0  0  0  0
    5.4492   50.7415   26.5724 C   0  0  0  0  0  0  0  0  0  0  0  0
    3.8461   50.3783   28.4000 C   0  0  0  0  0  0  0  0  0  0  0  0
    4.3963   51.2403   25.8158 C   0  0  0  0  0  0  0  0  0  0  0  0
    2.8162   50.9023   27.5879 C   0  0  0  0  0  0  0  0  0  0  0  0
    3.5135   49.9388   29.7220 N   0  0  0  0  0  0  0  0  0  0  0  0
    4.4227   51.7244   24.5215 O   0  0  0  0  0  0  0  0  0  0  0  0
    3.1353   51.3165   26.3018 C   0  0  0  0  0  0  0  0  0  0  0  0
    3.5193   48.5947   30.0106 O   0  0  0  0  0  0  0  0  0  0  0  0
    2.9254   50.7193   30.4981 O   0  0  0  0  0  0  0  0  0  0  0  0
    3.0908   52.1252   24.1726 C   0  0  0  0  0  0  0  0  0  0  0  0
    2.3002   51.8474   25.3378 O   0  0  0  0  0  0  0  0  0  0  0  0
    8.8124   40.1834   34.2123 O   0  0  0  0  0  0  0  0  0  0  0  0
   11.2410   40.7941   33.3692 O   0  0  0  0  0  0  0  0  0  0  0  0
   10.9181   40.6910   31.9965 C   0  0  0  0  0  0  0  0  0  0  0  0
   11.5172   39.3815   31.4401 C   0  0  0  0  0  0  0  0  0  0  0  0
   12.7497   39.0856   32.0716 O   0  0  0  0  0  0  0  0  0  0  0  0
   10.6023   38.1907   31.6667 C   0  0  0  0  0  0  0  0  0  0  0  0
   12.9324   37.6780   32.0275 C   0  0  0  0  0  0  0  0  0  0  0  0
    9.6386   38.0800   30.6460 O   0  0  0  0  0  0  0  0  0  0  0  0
   11.5717   37.0164   31.7054 C   0  0  0  0  0  0  0  0  0  0  0  0
   13.4846   37.2122   33.3236 N   0  0  0  0  0  0  0  0  0  0  0  0
   11.6183   36.3377   30.4694 O   0  0  0  0  0  0  0  0  0  0  0  0
   14.4805   36.3326   33.5728 C   0  0  0  0  0  0  0  0  0  0  0  0
   13.1132   37.6269   34.5693 C   0  0  0  0  0  0  0  0  0  0  0  0
   15.2075   35.6155   32.6743 N   0  0  0  0  0  0  0  0  0  0  0  0
   14.6764   36.2314   34.9183 C   0  0  0  0  0  0  0  0  0  0  0  0
   13.8213   37.0447   35.5785 N   0  0  0  0  0  0  0  0  0  0  0  0
   16.1641   34.7603   33.1549 C   0  0  0  0  0  0  0  0  0  0  0  0
   15.6528   35.3510   35.4133 C   0  0  0  0  0  0  0  0  0  0  0  0
   16.3794   34.6315   34.5045 N   0  0  0  0  0  0  0  0  0  0  0  0
   15.9004   35.1943   36.8093 N   0  0  0  0  0  0  0  0  0  0  0  0
    9.0008   45.4390   33.6727 H   0  0  0  0  0  0  0  0  0  0  0  0
   11.0539   46.2272   34.4969 H   0  0  0  0  0  0  0  0  0  0  0  0
   10.7786   46.9356   33.0142 H   0  0  0  0  0  0  0  0  0  0  0  0
   10.7408   44.9061   31.1831 H   0  0  0  0  0  0  0  0  0  0  0  0
    9.3630   43.8341   31.4723 H   0  0  0  0  0  0  0  0  0  0  0  0
    7.0123   44.7144   31.5804 H   0  0  0  0  0  0  0  0  0  0  0  0
   10.3471   47.1862   30.4064 H   0  0  0  0  0  0  0  0  0  0  0  0
    5.4641   46.3023   30.5035 H   0  0  0  0  0  0  0  0  0  0  0  0
    8.8205   48.7591   29.3433 H   0  0  0  0  0  0  0  0  0  0  0  0
    7.2582   49.7601   28.0901 H   0  0  0  0  0  0  0  0  0  0  0  0
    5.8091   50.8648   30.5874 H   0  0  0  0  0  0  0  0  0  0  0  0
    7.5625   50.5267   30.4175 H   0  0  0  0  0  0  0  0  0  0  0  0
    6.8132   51.8351   29.4408 H   0  0  0  0  0  0  0  0  0  0  0  0
    6.4451   50.7128   26.1498 H   0  0  0  0  0  0  0  0  0  0  0  0
    1.7973   50.9712   27.9478 H   0  0  0  0  0  0  0  0  0  0  0  0
    3.0664   53.2116   23.9418 H   0  0  0  0  0  0  0  0  0  0  0  0
    2.7244   51.5296   23.3091 H   0  0  0  0  0  0  0  0  0  0  0  0
    9.8296   40.7412   31.7590 H   0  0  0  0  0  0  0  0  0  0  0  0
   11.3959   41.5463   31.4730 H   0  0  0  0  0  0  0  0  0  0  0  0
   11.6963   39.5074   30.3469 H   0  0  0  0  0  0  0  0  0  0  0  0
   10.1075   38.2643   32.6650 H   0  0  0  0  0  0  0  0  0  0  0  0
   13.6627   37.4470   31.2193 H   0  0  0  0  0  0  0  0  0  0  0  0
    8.8973   38.6949   30.8850 H   0  0  0  0  0  0  0  0  0  0  0  0
   11.2805   36.3073   32.5170 H   0  0  0  0  0  0  0  0  0  0  0  0
   10.8488   35.7104   30.4590 H   0  0  0  0  0  0  0  0  0  0  0  0
   12.3288   38.3519   34.7461 H   0  0  0  0  0  0  0  0  0  0  0  0
   16.7563   34.1793   32.4614 H   0  0  0  0  0  0  0  0  0  0  0  0
   15.3535   35.7367   37.5143 H   0  0  0  0  0  0  0  0  0  0  0  0
   16.6344   34.5309   37.1424 H   0  0  0  0  0  0  0  0  0  0  0  0
  1  2  2  0
  1  3  1  0
  3  4  1  0
  4  5  1  0
  6  1  1  0
  7  6  1  0
  6  8  1  0
  8  9  1  0
  9 10  2  0
 11  9  1  0
 10 12  1  0
 13 11  2  0
 12 14  2  0
 14 13  1  0
 14 15  1  0
 15 16  1  0
 16 17  1  0
 16 18  1  0
 18 19  2  0
 20 18  1  0
 19 21  1  0
 22 20  2  0
 20 23  1  0
 21 24  1  0
 21 25  2  0
 25 22  1  0
 23 26  1  0
 23 27  2  0
 24 28  1  0
 25 29  1  0
 28 29  1  0
  4 30  2  0
  4 31  1  0
 32 31  1  0
 32 33  1  0
 33 34  1  0
 33 35  1  0
 34 36  1  0
 35 37  1  0
 35 38  1  0
 38 36  1  0
 36 39  1  0
 38 40  1  0
 41 39  1  0
 42 39  1  0
 43 41  2  0
 41 44  1  0
 45 42  2  0
 46 43  1  0
 44 47  2  0
 44 45  1  0
 48 46  2  0
 48 47  1  0
 47 49  1  0
  6 50  1  1
  7 51  1  0
  7 52  1  0
  8 53  1  0
  8 54  1  0
 10 55  1  0
 11 56  1  0
 12 57  1  0
 13 58  1  0
 16 59  1  6
 17 60  1  0
 17 61  1  0
 17 62  1  0
 19 63  1  0
 22 64  1  0
 28 65  1  0
 28 66  1  0
 32 67  1  0
 32 68  1  0
 33 69  1  0
 35 70  1  0
 36 71  1  0
 37 72  1  0
 38 73  1  0
 40 74  1  0
 42 75  1  0
 46 76  1  0
 49 77  1  0
 49 78  1  0
M  CHG  3   5  -1  23   1  26  -1
M  END
>  <EmbedRMS>  (49) 
0.082749247742

$$$$

     RDKit          3D

 78 83  0  0  0  0  0  0  0  0999 V2000
   10.2805   43.7664   33.8249 C   0  0  0  0  0  0  0  0  0  0  0  0
   11.4111   43.5918   34.3667 O   0  0  0  0  0  0  0  0  0  0  0  0
    9.3619   42.7249   33.7344 O   0  0  0  0  0  0  0  0  0  0  0  0
    9.8899   41.2266   34.2940 P   0  0  0  0  0  0  0  0  0  0  0  0
   10.3734   41.4567   35.8833 O   0  0  0  0  0  0  0  0  0  0  0  0
    9.9461   45.0736   33.2112 C   0  0  1  0  0  0  0  0  0  0  0  0
   11.0267   46.0292   33.4709 N   0  0  0  0  0  0  0  0  0  0  0  0
    9.7542   44.8541   31.6949 C   0  0  0  0  0  0  0  0  0  0  0  0
    8.7960   45.8413   31.0851 C   0  0  0  0  0  0  0  0  0  0  0  0
    7.4097   45.6005   31.1010 C   0  0  0  0  0  0  0  0  0  0  0  0
    9.2823   46.9876   30.4401 C   0  0  0  0  0  0  0  0  0  0  0  0
    6.5264   46.4990   30.4864 C   0  0  0  0  0  0  0  0  0  0  0  0
    8.3992   47.8862   29.8314 C   0  0  0  0  0  0  0  0  0  0  0  0
    7.0169   47.6557   29.8452 C   0  0  0  0  0  0  0  0  0  0  0  0
    6.1916   48.5962   29.2013 O   0  0  0  0  0  0  0  0  0  0  0  0
    4.7606   48.5876   29.1074 C   0  0  2  0  0  0  0  0  0  0  0  0
    4.1412   48.9213   30.4740 C   0  0  0  0  0  0  0  0  0  0  0  0
    4.2477   47.3236   28.4151 C   0  0  0  0  0  0  0  0  0  0  0  0
    3.1938   46.5568   28.9838 C   0  0  0  0  0  0  0  0  0  0  0  0
    4.8431   46.8736   27.1862 C   0  0  0  0  0  0  0  0  0  0  0  0
    2.8085   45.3814   28.3537 C   0  0  0  0  0  0  0  0  0  0  0  0
    4.4158   45.6596   26.6010 C   0  0  0  0  0  0  0  0  0  0  0  0
    5.8795   47.6237   26.5298 N   0  0  0  0  0  0  0  0  0  0  0  0
    1.8289   44.4849   28.7360 O   0  0  0  0  0  0  0  0  0  0  0  0
    3.3963   44.9494   27.2164 C   0  0  0  0  0  0  0  0  0  0  0  0
    5.7574   48.9833   26.3622 O   0  0  0  0  0  0  0  0  0  0  0  0
    6.8053   47.0266   25.9424 O   0  0  0  0  0  0  0  0  0  0  0  0
    1.8022   43.4217   27.7741 C   0  0  0  0  0  0  0  0  0  0  0  0
    2.8189   43.7582   26.8205 O   0  0  0  0  0  0  0  0  0  0  0  0
    8.8123   40.1844   34.2133 O   0  0  0  0  0  0  0  0  0  0  0  0
   11.2405   40.7942   33.3691 O   0  0  0  0  0  0  0  0  0  0  0  0
   10.9150   40.6905   31.9972 C   0  0  0  0  0  0  0  0  0  0  0  0
   11.5252   39.3886   31.4375 C   0  0  0  0  0  0  0  0  0  0  0  0
   12.7499   39.0874   32.0799 O   0  0  0  0  0  0  0  0  0  0  0  0
   10.6092   38.1926   31.6469 C   0  0  0  0  0  0  0  0  0  0  0  0
   12.9332   37.6793   32.0294 C   0  0  0  0  0  0  0  0  0  0  0  0
    9.6121   38.0894   30.6542 O   0  0  0  0  0  0  0  0  0  0  0  0
   11.5743   37.0145   31.7024 C   0  0  0  0  0  0  0  0  0  0  0  0
   13.4844   37.2108   33.3241 N   0  0  0  0  0  0  0  0  0  0  0  0
   11.6297   36.3239   30.4740 O   0  0  0  0  0  0  0  0  0  0  0  0
   14.4802   36.3313   33.5727 C   0  0  0  0  0  0  0  0  0  0  0  0
   13.1138   37.6267   34.5692 C   0  0  0  0  0  0  0  0  0  0  0  0
   15.2075   35.6149   32.6739 N   0  0  0  0  0  0  0  0  0  0  0  0
   14.6761   36.2303   34.9181 C   0  0  0  0  0  0  0  0  0  0  0  0
   13.8220   37.0447   35.5785 N   0  0  0  0  0  0  0  0  0  0  0  0
   16.1643   34.7600   33.1547 C   0  0  0  0  0  0  0  0  0  0  0  0
   15.6529   35.3505   35.4130 C   0  0  0  0  0  0  0  0  0  0  0  0
   16.3798   34.6315   34.5042 N   0  0  0  0  0  0  0  0  0  0  0  0
   15.9003   35.1932   36.8090 N   0  0  0  0  0  0  0  0  0  0  0  0
    8.9996   45.4381   33.6722 H   0  0  0  0  0  0  0  0  0  0  0  0
   11.0502   46.2276   34.4983 H   0  0  0  0  0  0  0  0  0  0  0  0
   10.7765   46.9369   33.0160 H   0  0  0  0  0  0  0  0  0  0  0  0
    9.3646   43.8354   31.4710 H   0  0  0  0  0  0  0  0  0  0  0  0
   10.7413   44.9079   31.1836 H   0  0  0  0  0  0  0  0  0  0  0  0
    7.0158   44.7149   31.5846 H   0  0  0  0  0  0  0  0  0  0  0  0
   10.3461   47.1874   30.4051 H   0  0  0  0  0  0  0  0  0  0  0  0
    5.4741   46.2719   30.5188 H   0  0  0  0  0  0  0  0  0  0  0  0
    8.7925   48.7664   29.3385 H   0  0  0  0  0  0  0  0  0  0  0  0
    4.4772   49.4371   28.4515 H   0  0  0  0  0  0  0  0  0  0  0  0
    4.2955   48.1064   31.2088 H   0  0  0  0  0  0  0  0  0  0  0  0
    3.0532   49.1180   30.3661 H   0  0  0  0  0  0  0  0  0  0  0  0
    4.6118   49.8426   30.8780 H   0  0  0  0  0  0  0  0  0  0  0  0
    2.6924   46.8401   29.8975 H   0  0  0  0  0  0  0  0  0  0  0  0
    4.8530   45.2922   25.6814 H   0  0  0  0  0  0  0  0  0  0  0  0
    0.8103   43.3779   27.2774 H   0  0  0  0  0  0  0  0  0  0  0  0
    2.0412   42.4545   28.2638 H   0  0  0  0  0  0  0  0  0  0  0  0
   11.3800   41.5528   31.4730 H   0  0  0  0  0  0  0  0  0  0  0  0
    9.8241   40.7215   31.7641 H   0  0  0  0  0  0  0  0  0  0  0  0
   11.7266   39.5310   30.3513 H   0  0  0  0  0  0  0  0  0  0  0  0
   10.1110   38.2747   32.6387 H   0  0  0  0  0  0  0  0  0  0  0  0
   13.6652   37.4520   31.2226 H   0  0  0  0  0  0  0  0  0  0  0  0
   10.0511   38.1143   29.7645 H   0  0  0  0  0  0  0  0  0  0  0  0
   11.2762   36.3141   32.5189 H   0  0  0  0  0  0  0  0  0  0  0  0
   10.8593   35.6978   30.4640 H   0  0  0  0  0  0  0  0  0  0  0  0
   12.3294   38.3518   34.7449 H   0  0  0  0  0  0  0  0  0  0  0  0
   16.7564   34.1779   32.4620 H   0  0  0  0  0  0  0  0  0  0  0  0
   16.6349   34.5300   37.1415 H   0  0  0  0  0  0  0  0  0  0  0  0
   15.3534   35.7359   37.5138 H   0  0  0  0  0  0  0  0  0  0  0  0
  1  2  2  0
  1  3  1  0
  3  4  1  0
  4  5  1  0
  6  1  1  0
  7  6  1  0
  6  8  1  0
  8  9  1  0
  9 10  2  0
 11  9  1  0
 10 12  1  0
 13 11  2  0
 12 14  2  0
 14 13  1  0
 14 15  1  0
 15 16  1  0
 16 17  1  0
 16 18  1  0
 18 19  2  0
 20 18  1  0
 19 21  1  0
 22 20  2  0
 20 23  1  0
 21 24  1  0
 21 25  2  0
 25 22  1  0
 23 26  1  0
 23 27  2  0
 24 28  1  0
 25 29  1  0
 28 29  1  0
  4 30  2  0
  4 31  1  0
 32 31  1  0
 32 33  1  0
 33 34  1  0
 33 35  1  0
 34 36  1  0
 35 37  1  0
 35 38  1  0
 38 36  1  0
 36 39  1  0
 38 40  1  0
 41 39  1  0
 42 39  1  0
 43 41  2  0
 41 44  1  0
 45 42  2  0
 46 43  1  0
 44 47  2  0
 44 45  1  0
 48 46  2  0
 48 47  1  0
 47 49  1  0
  6 50  1  1
  7 51  1  0
  7 52  1  0
  8 53  1  0
  8 54  1  0
 10 55  1  0
 11 56  1  0
 12 57  1  0
 13 58  1  0
 16 59  1  6
 17 60  1  0
 17 61  1  0
 17 62  1  0
 19 63  1  0
 22 64  1  0
 28 65  1  0
 28 66  1  0
 32 67  1  0
 32 68  1  0
 33 69  1  0
 35 70  1  0
 36 71  1  0
 37 72  1  0
 38 73  1  0
 40 74  1  0
 42 75  1  0
 46 76  1  0
 49 77  1  0
 49 78  1  0
M  CHG  3   5  -1  23   1  26  -1
M  END
>  <EmbedRMS>  (50) 
0.081619962817

$$$$

     RDKit          3D

 78 83  0  0  0  0  0  0  0  0999 V2000
   10.2835   43.7661   33.8256 C   0  0  0  0  0  0  0  0  0  0  0  0
   11.4102   43.5930   34.3753 O   0  0  0  0  0  0  0  0  0  0  0  0
    9.3639   42.7253   33.7347 O   0  0  0  0  0  0  0  0  0  0  0  0
    9.8906   41.2265   34.2938 P   0  0  0  0  0  0  0  0  0  0  0  0
   10.3733   41.4559   35.8835 O   0  0  0  0  0  0  0  0  0  0  0  0
    9.9547   45.0695   33.2036 C   0  0  1  0  0  0  0  0  0  0  0  0
   11.0272   46.0323   33.4760 N   0  0  0  0  0  0  0  0  0  0  0  0
    9.7471   44.8484   31.6877 C   0  0  0  0  0  0  0  0  0  0  0  0
    8.7926   45.8411   31.0847 C   0  0  0  0  0  0  0  0  0  0  0  0
    7.4060   45.6008   31.0989 C   0  0  0  0  0  0  0  0  0  0  0  0
    9.2818   46.9875   30.4415 C   0  0  0  0  0  0  0  0  0  0  0  0
    6.5247   46.5005   30.4839 C   0  0  0  0  0  0  0  0  0  0  0  0
    8.4005   47.8873   29.8314 C   0  0  0  0  0  0  0  0  0  0  0  0
    7.0182   47.6580   29.8482 C   0  0  0  0  0  0  0  0  0  0  0  0
    6.1827   48.5995   29.2245 O   0  0  0  0  0  0  0  0  0  0  0  0
    4.7548   48.5854   29.2444 C   0  0  2  0  0  0  0  0  0  0  0  0
    4.2215   49.5844   28.2171 C   0  0  0  0  0  0  0  0  0  0  0  0
    4.2156   48.8910   30.6344 C   0  0  0  0  0  0  0  0  0  0  0  0
    3.3108   47.9681   31.2145 C   0  0  0  0  0  0  0  0  0  0  0  0
    4.5394   50.0924   31.3509 C   0  0  0  0  0  0  0  0  0  0  0  0
    2.7715   48.2575   32.4611 C   0  0  0  0  0  0  0  0  0  0  0  0
    3.9486   50.3400   32.6097 C   0  0  0  0  0  0  0  0  0  0  0  0
    5.4386   51.0715   30.8170 N   0  0  0  0  0  0  0  0  0  0  0  0
    1.8823   47.5080   33.2071 O   0  0  0  0  0  0  0  0  0  0  0  0
    3.0759   49.3937   33.1287 C   0  0  0  0  0  0  0  0  0  0  0  0
    6.7717   50.7688   30.6747 O   0  0  0  0  0  0  0  0  0  0  0  0
    5.0844   52.2672   30.7654 O   0  0  0  0  0  0  0  0  0  0  0  0
    1.6137   48.2209   34.4222 C   0  0  0  0  0  0  0  0  0  0  0  0
    2.3956   49.4197   34.3309 O   0  0  0  0  0  0  0  0  0  0  0  0
    8.8126   40.1848   34.2122 O   0  0  0  0  0  0  0  0  0  0  0  0
   11.2417   40.7942   33.3694 O   0  0  0  0  0  0  0  0  0  0  0  0
   10.9179   40.6904   31.9970 C   0  0  0  0  0  0  0  0  0  0  0  0
   11.5181   39.3814   31.4408 C   0  0  0  0  0  0  0  0  0  0  0  0
   12.7497   39.0870   32.0745 O   0  0  0  0  0  0  0  0  0  0  0  0
   10.6045   38.1892   31.6655 C   0  0  0  0  0  0  0  0  0  0  0  0
   12.9344   37.6801   32.0290 C   0  0  0  0  0  0  0  0  0  0  0  0
    9.6419   38.0758   30.6441 O   0  0  0  0  0  0  0  0  0  0  0  0
   11.5741   37.0170   31.7045 C   0  0  0  0  0  0  0  0  0  0  0  0
   13.4851   37.2126   33.3241 N   0  0  0  0  0  0  0  0  0  0  0  0
   11.6079   36.3407   30.4680 O   0  0  0  0  0  0  0  0  0  0  0  0
   14.4801   36.3321   33.5727 C   0  0  0  0  0  0  0  0  0  0  0  0
   13.1140   37.6277   34.5693 C   0  0  0  0  0  0  0  0  0  0  0  0
   15.2073   35.6155   32.6739 N   0  0  0  0  0  0  0  0  0  0  0  0
   14.6758   36.2306   34.9182 C   0  0  0  0  0  0  0  0  0  0  0  0
   13.8217   37.0451   35.5785 N   0  0  0  0  0  0  0  0  0  0  0  0
   16.1639   34.7602   33.1546 C   0  0  0  0  0  0  0  0  0  0  0  0
   15.6526   35.3506   35.4130 C   0  0  0  0  0  0  0  0  0  0  0  0
   16.3794   34.6316   34.5041 N   0  0  0  0  0  0  0  0  0  0  0  0
   15.9000   35.1933   36.8089 N   0  0  0  0  0  0  0  0  0  0  0  0
    9.0120   45.4316   33.6713 H   0  0  0  0  0  0  0  0  0  0  0  0
   10.7258   46.9688   33.1216 H   0  0  0  0  0  0  0  0  0  0  0  0
   11.8907   45.7660   32.9477 H   0  0  0  0  0  0  0  0  0  0  0  0
    9.3425   43.8332   31.4758 H   0  0  0  0  0  0  0  0  0  0  0  0
   10.7236   44.8825   31.1559 H   0  0  0  0  0  0  0  0  0  0  0  0
    7.0105   44.7142   31.5792 H   0  0  0  0  0  0  0  0  0  0  0  0
   10.3460   47.1857   30.4093 H   0  0  0  0  0  0  0  0  0  0  0  0
    5.4687   46.2787   30.5057 H   0  0  0  0  0  0  0  0  0  0  0  0
    8.7939   48.7696   29.3426 H   0  0  0  0  0  0  0  0  0  0  0  0
    4.4087   47.5841   28.9037 H   0  0  0  0  0  0  0  0  0  0  0  0
    4.5416   49.2774   27.1988 H   0  0  0  0  0  0  0  0  0  0  0  0
    4.6092   50.6057   28.4063 H   0  0  0  0  0  0  0  0  0  0  0  0
    3.1109   49.6062   28.2436 H   0  0  0  0  0  0  0  0  0  0  0  0
    3.0265   47.0552   30.7068 H   0  0  0  0  0  0  0  0  0  0  0  0
    4.1737   51.2397   33.1681 H   0  0  0  0  0  0  0  0  0  0  0  0
    1.9344   47.6201   35.2989 H   0  0  0  0  0  0  0  0  0  0  0  0
    0.5343   48.4717   34.4897 H   0  0  0  0  0  0  0  0  0  0  0  0
    9.8290   40.7386   31.7617 H   0  0  0  0  0  0  0  0  0  0  0  0
   11.3946   41.5459   31.4723 H   0  0  0  0  0  0  0  0  0  0  0  0
   11.6994   39.5069   30.3484 H   0  0  0  0  0  0  0  0  0  0  0  0
   10.1090   38.2635   32.6632 H   0  0  0  0  0  0  0  0  0  0  0  0
   13.6662   37.4515   31.2224 H   0  0  0  0  0  0  0  0  0  0  0  0
    8.9009   38.6925   30.8793 H   0  0  0  0  0  0  0  0  0  0  0  0
   11.2650   36.3083   32.5087 H   0  0  0  0  0  0  0  0  0  0  0  0
   12.1372   35.5140   30.6163 H   0  0  0  0  0  0  0  0  0  0  0  0
   12.3297   38.3530   34.7450 H   0  0  0  0  0  0  0  0  0  0  0  0
   16.7558   34.1781   32.4619 H   0  0  0  0  0  0  0  0  0  0  0  0
   15.3533   35.7360   37.5138 H   0  0  0  0  0  0  0  0  0  0  0  0
   16.6346   34.5300   37.1414 H   0  0  0  0  0  0  0  0  0  0  0  0
  1  2  2  0
  1  3  1  0
  3  4  1  0
  4  5  1  0
  6  1  1  0
  7  6  1  0
  6  8  1  0
  8  9  1  0
  9 10  2  0
 11  9  1  0
 10 12  1  0
 13 11  2  0
 12 14  2  0
 14 13  1  0
 14 15  1  0
 15 16  1  0
 16 17  1  0
 16 18  1  0
 18 19  2  0
 20 18  1  0
 19 21  1  0
 22 20  2  0
 20 23  1  0
 21 24  1  0
 21 25  2  0
 25 22  1  0
 23 26  1  0
 23 27  2  0
 24 28  1  0
 25 29  1  0
 28 29  1  0
  4 30  2  0
  4 31  1  0
 32 31  1  0
 32 33  1  0
 33 34  1  0
 33 35  1  0
 34 36  1  0
 35 37  1  0
 35 38  1  0
 38 36  1  0
 36 39  1  0
 38 40  1  0
 41 39  1  0
 42 39  1  0
 43 41  2  0
 41 44  1  0
 45 42  2  0
 46 43  1  0
 44 47  2  0
 44 45  1  0
 48 46  2  0
 48 47  1  0
 47 49  1  0
  6 50  1  1
  7 51  1  0
  7 52  1  0
  8 53  1  0
  8 54  1  0
 10 55  1  0
 11 56  1  0
 12 57  1  0
 13 58  1  0
 16 59  1  6
 17 60  1  0
 17 61  1  0
 17 62  1  0
 19 63  1  0
 22 64  1  0
 28 65  1  0
 28 66  1  0
 32 67  1  0
 32 68  1  0
 33 69  1  0
 35 70  1  0
 36 71  1  0
 37 72  1  0
 38 73  1  0
 40 74  1  0
 42 75  1  0
 46 76  1  0
 49 77  1  0
 49 78  1  0
M  CHG  3   5  -1  23   1  26  -1
M  END
>  <EmbedRMS>  (51) 
0.0828179749958

$$$$

     RDKit          3D

 78 83  0  0  0  0  0  0  0  0999 V2000
   10.2803   43.7665   33.8251 C   0  0  0  0  0  0  0  0  0  0  0  0
   11.4110   43.5919   34.3667 O   0  0  0  0  0  0  0  0  0  0  0  0
    9.3616   42.7252   33.7349 O   0  0  0  0  0  0  0  0  0  0  0  0
    9.8896   41.2269   34.2945 P   0  0  0  0  0  0  0  0  0  0  0  0
   10.3732   41.4568   35.8838 O   0  0  0  0  0  0  0  0  0  0  0  0
    9.9458   45.0737   33.2112 C   0  0  1  0  0  0  0  0  0  0  0  0
   11.0266   46.0293   33.4705 N   0  0  0  0  0  0  0  0  0  0  0  0
    9.7537   44.8536   31.6950 C   0  0  0  0  0  0  0  0  0  0  0  0
    8.7956   45.8405   31.0846 C   0  0  0  0  0  0  0  0  0  0  0  0
    7.4093   45.6002   31.1004 C   0  0  0  0  0  0  0  0  0  0  0  0
    9.2824   46.9869   30.4400 C   0  0  0  0  0  0  0  0  0  0  0  0
    6.5295   46.5012   30.4855 C   0  0  0  0  0  0  0  0  0  0  0  0
    8.4022   47.8886   29.8307 C   0  0  0  0  0  0  0  0  0  0  0  0
    7.0123   47.6529   29.8477 C   0  0  0  0  0  0  0  0  0  0  0  0
    6.0696   48.5201   29.2651 O   0  0  0  0  0  0  0  0  0  0  0  0
    6.3217   49.7397   28.5540 C   0  0  2  0  0  0  0  0  0  0  0  0
    6.9295   49.4305   27.1766 C   0  0  0  0  0  0  0  0  0  0  0  0
    7.0712   50.7538   29.4203 C   0  0  0  0  0  0  0  0  0  0  0  0
    8.2310   51.4151   28.9307 C   0  0  0  0  0  0  0  0  0  0  0  0
    6.6296   51.0366   30.7601 C   0  0  0  0  0  0  0  0  0  0  0  0
    8.9174   52.2740   29.7781 C   0  0  0  0  0  0  0  0  0  0  0  0
    7.3816   51.9091   31.5785 C   0  0  0  0  0  0  0  0  0  0  0  0
    5.4401   50.4443   31.3095 N   0  0  0  0  0  0  0  0  0  0  0  0
   10.0637   53.0004   29.5180 O   0  0  0  0  0  0  0  0  0  0  0  0
    8.5142   52.5065   31.0466 C   0  0  0  0  0  0  0  0  0  0  0  0
    5.3877   50.1300   32.6480 O   0  0  0  0  0  0  0  0  0  0  0  0
    4.3890   50.3925   30.6389 O   0  0  0  0  0  0  0  0  0  0  0  0
   10.3996   53.7361   30.7021 C   0  0  0  0  0  0  0  0  0  0  0  0
    9.3838   53.3919   31.6538 O   0  0  0  0  0  0  0  0  0  0  0  0
    8.8122   40.1844   34.2135 O   0  0  0  0  0  0  0  0  0  0  0  0
   11.2401   40.7950   33.3698 O   0  0  0  0  0  0  0  0  0  0  0  0
   10.9143   40.6914   31.9981 C   0  0  0  0  0  0  0  0  0  0  0  0
   11.5269   39.3911   31.4385 C   0  0  0  0  0  0  0  0  0  0  0  0
   12.7519   39.0911   32.0837 O   0  0  0  0  0  0  0  0  0  0  0  0
   10.6113   38.1932   31.6451 C   0  0  0  0  0  0  0  0  0  0  0  0
   12.9413   37.6838   32.0297 C   0  0  0  0  0  0  0  0  0  0  0  0
    9.6064   38.0877   30.6599 O   0  0  0  0  0  0  0  0  0  0  0  0
   11.5822   37.0197   31.6877 C   0  0  0  0  0  0  0  0  0  0  0  0
   13.4840   37.2104   33.3254 N   0  0  0  0  0  0  0  0  0  0  0  0
   11.6179   36.3072   30.4690 O   0  0  0  0  0  0  0  0  0  0  0  0
   14.4797   36.3309   33.5738 C   0  0  0  0  0  0  0  0  0  0  0  0
   13.1136   37.6269   34.5702 C   0  0  0  0  0  0  0  0  0  0  0  0
   15.2074   35.6152   32.6747 N   0  0  0  0  0  0  0  0  0  0  0  0
   14.6756   36.2298   34.9190 C   0  0  0  0  0  0  0  0  0  0  0  0
   13.8217   37.0445   35.5793 N   0  0  0  0  0  0  0  0  0  0  0  0
   16.1643   34.7603   33.1551 C   0  0  0  0  0  0  0  0  0  0  0  0
   15.6528   35.3503   35.4136 C   0  0  0  0  0  0  0  0  0  0  0  0
   16.3798   34.6316   34.5046 N   0  0  0  0  0  0  0  0  0  0  0  0
   15.9004   35.1930   36.8094 N   0  0  0  0  0  0  0  0  0  0  0  0
    8.9994   45.4383   33.6721 H   0  0  0  0  0  0  0  0  0  0  0  0
   10.7762   46.9369   33.0155 H   0  0  0  0  0  0  0  0  0  0  0  0
   11.0503   46.2279   34.4979 H   0  0  0  0  0  0  0  0  0  0  0  0
   10.7408   44.9069   31.1836 H   0  0  0  0  0  0  0  0  0  0  0  0
    9.3639   43.8349   31.4716 H   0  0  0  0  0  0  0  0  0  0  0  0
    7.0134   44.7163   31.5850 H   0  0  0  0  0  0  0  0  0  0  0  0
   10.3466   47.1860   30.4077 H   0  0  0  0  0  0  0  0  0  0  0  0
    5.4650   46.3047   30.5083 H   0  0  0  0  0  0  0  0  0  0  0  0
    8.8231   48.7584   29.3552 H   0  0  0  0  0  0  0  0  0  0  0  0
    5.3320   50.1921   28.3331 H   0  0  0  0  0  0  0  0  0  0  0  0
    6.9421   50.3455   26.5470 H   0  0  0  0  0  0  0  0  0  0  0  0
    6.3038   48.6731   26.6584 H   0  0  0  0  0  0  0  0  0  0  0  0
    7.9583   49.0273   27.2587 H   0  0  0  0  0  0  0  0  0  0  0  0
    8.6134   51.2616   27.9323 H   0  0  0  0  0  0  0  0  0  0  0  0
    7.0787   52.1315   32.5936 H   0  0  0  0  0  0  0  0  0  0  0  0
   10.3778   54.8268   30.4958 H   0  0  0  0  0  0  0  0  0  0  0  0
   11.3973   53.4254   31.0772 H   0  0  0  0  0  0  0  0  0  0  0  0
    9.8233   40.7200   31.7652 H   0  0  0  0  0  0  0  0  0  0  0  0
   11.3774   41.5548   31.4741 H   0  0  0  0  0  0  0  0  0  0  0  0
   11.7312   39.5361   30.3532 H   0  0  0  0  0  0  0  0  0  0  0  0
   10.1203   38.2696   32.6410 H   0  0  0  0  0  0  0  0  0  0  0  0
   13.6850   37.4639   31.2321 H   0  0  0  0  0  0  0  0  0  0  0  0
   10.0250   38.1792   29.7654 H   0  0  0  0  0  0  0  0  0  0  0  0
   11.2757   36.3135   32.4907 H   0  0  0  0  0  0  0  0  0  0  0  0
   11.9838   36.9112   29.7708 H   0  0  0  0  0  0  0  0  0  0  0  0
   12.3307   38.3536   34.7458 H   0  0  0  0  0  0  0  0  0  0  0  0
   16.7566   34.1787   32.4623 H   0  0  0  0  0  0  0  0  0  0  0  0
   15.3535   35.7355   37.5144 H   0  0  0  0  0  0  0  0  0  0  0  0
   16.6353   34.5301   37.1419 H   0  0  0  0  0  0  0  0  0  0  0  0
  1  2  2  0
  1  3  1  0
  3  4  1  0
  4  5  1  0
  6  1  1  0
  7  6  1  0
  6  8  1  0
  8  9  1  0
  9 10  2  0
 11  9  1  0
 10 12  1  0
 13 11  2  0
 12 14  2  0
 14 13  1  0
 14 15  1  0
 15 16  1  0
 16 17  1  0
 16 18  1  0
 18 19  2  0
 20 18  1  0
 19 21  1  0
 22 20  2  0
 20 23  1  0
 21 24  1  0
 21 25  2  0
 25 22  1  0
 23 26  1  0
 23 27  2  0
 24 28  1  0
 25 29  1  0
 28 29  1  0
  4 30  2  0
  4 31  1  0
 32 31  1  0
 32 33  1  0
 33 34  1  0
 33 35  1  0
 34 36  1  0
 35 37  1  0
 35 38  1  0
 38 36  1  0
 36 39  1  0
 38 40  1  0
 41 39  1  0
 42 39  1  0
 43 41  2  0
 41 44  1  0
 45 42  2  0
 46 43  1  0
 44 47  2  0
 44 45  1  0
 48 46  2  0
 48 47  1  0
 47 49  1  0
  6 50  1  1
  7 51  1  0
  7 52  1  0
  8 53  1  0
  8 54  1  0
 10 55  1  0
 11 56  1  0
 12 57  1  0
 13 58  1  0
 16 59  1  6
 17 60  1  0
 17 61  1  0
 17 62  1  0
 19 63  1  0
 22 64  1  0
 28 65  1  0
 28 66  1  0
 32 67  1  0
 32 68  1  0
 33 69  1  0
 35 70  1  0
 36 71  1  0
 37 72  1  0
 38 73  1  0
 40 74  1  0
 42 75  1  0
 46 76  1  0
 49 77  1  0
 49 78  1  0
M  CHG  3   5  -1  23   1  26  -1
M  END
>  <EmbedRMS>  (52) 
0.0806500461038

$$$$

     RDKit          3D

 78 83  0  0  0  0  0  0  0  0999 V2000
   10.2836   43.7629   33.8276 C   0  0  0  0  0  0  0  0  0  0  0  0
   11.4101   43.5865   34.3765 O   0  0  0  0  0  0  0  0  0  0  0  0
    9.3628   42.7238   33.7357 O   0  0  0  0  0  0  0  0  0  0  0  0
    9.8892   41.2252   34.2949 P   0  0  0  0  0  0  0  0  0  0  0  0
   10.3728   41.4550   35.8842 O   0  0  0  0  0  0  0  0  0  0  0  0
    9.9544   45.0703   33.2065 C   0  0  1  0  0  0  0  0  0  0  0  0
   11.0193   46.0485   33.4571 N   0  0  0  0  0  0  0  0  0  0  0  0
    9.7500   44.8517   31.6924 C   0  0  0  0  0  0  0  0  0  0  0  0
    8.7939   45.8426   31.0873 C   0  0  0  0  0  0  0  0  0  0  0  0
    7.4062   45.5997   31.0992 C   0  0  0  0  0  0  0  0  0  0  0  0
    9.2833   46.9899   30.4424 C   0  0  0  0  0  0  0  0  0  0  0  0
    6.5265   46.4990   30.4813 C   0  0  0  0  0  0  0  0  0  0  0  0
    8.4016   47.8886   29.8296 C   0  0  0  0  0  0  0  0  0  0  0  0
    7.0209   47.6533   29.8564 C   0  0  0  0  0  0  0  0  0  0  0  0
    6.1442   48.5550   29.2456 O   0  0  0  0  0  0  0  0  0  0  0  0
    5.4695   49.6012   29.9524 C   0  0  2  0  0  0  0  0  0  0  0  0
    6.4560   50.6985   30.3784 C   0  0  0  0  0  0  0  0  0  0  0  0
    4.6292   49.0446   31.0984 C   0  0  0  0  0  0  0  0  0  0  0  0
    5.2053   48.8756   32.3853 C   0  0  0  0  0  0  0  0  0  0  0  0
    3.2581   48.6659   30.8967 C   0  0  0  0  0  0  0  0  0  0  0  0
    4.4051   48.4020   33.4160 C   0  0  0  0  0  0  0  0  0  0  0  0
    2.4885   48.2095   31.9907 C   0  0  0  0  0  0  0  0  0  0  0  0
    2.6437   48.7080   29.5982 N   0  0  0  0  0  0  0  0  0  0  0  0
    4.7507   48.1713   34.7337 O   0  0  0  0  0  0  0  0  0  0  0  0
    3.1029   48.0903   33.2291 C   0  0  0  0  0  0  0  0  0  0  0  0
    1.3053   49.0058   29.4839 O   0  0  0  0  0  0  0  0  0  0  0  0
    3.2469   48.2602   28.6013 O   0  0  0  0  0  0  0  0  0  0  0  0
    3.5875   47.6845   35.4171 C   0  0  0  0  0  0  0  0  0  0  0  0
    2.5580   47.6479   34.4192 O   0  0  0  0  0  0  0  0  0  0  0  0
    8.8114   40.1834   34.2134 O   0  0  0  0  0  0  0  0  0  0  0  0
   11.2399   40.7938   33.3701 O   0  0  0  0  0  0  0  0  0  0  0  0
   10.9144   40.6911   31.9982 C   0  0  0  0  0  0  0  0  0  0  0  0
   11.5269   39.3910   31.4383 C   0  0  0  0  0  0  0  0  0  0  0  0
   12.7520   39.0911   32.0834 O   0  0  0  0  0  0  0  0  0  0  0  0
   10.6114   38.1930   31.6450 C   0  0  0  0  0  0  0  0  0  0  0  0
   12.9413   37.6838   32.0296 C   0  0  0  0  0  0  0  0  0  0  0  0
    9.6065   38.0877   30.6597 O   0  0  0  0  0  0  0  0  0  0  0  0
   11.5822   37.0196   31.6876 C   0  0  0  0  0  0  0  0  0  0  0  0
   13.4840   37.2105   33.3254 N   0  0  0  0  0  0  0  0  0  0  0  0
   11.6179   36.3070   30.4690 O   0  0  0  0  0  0  0  0  0  0  0  0
   14.4795   36.3309   33.5738 C   0  0  0  0  0  0  0  0  0  0  0  0
   13.1136   37.6270   34.5701 C   0  0  0  0  0  0  0  0  0  0  0  0
   15.2073   35.6151   32.6747 N   0  0  0  0  0  0  0  0  0  0  0  0
   14.6755   36.2299   34.9190 C   0  0  0  0  0  0  0  0  0  0  0  0
   13.8216   37.0447   35.5793 N   0  0  0  0  0  0  0  0  0  0  0  0
   16.1643   34.7602   33.1552 C   0  0  0  0  0  0  0  0  0  0  0  0
   15.6527   35.3504   35.4137 C   0  0  0  0  0  0  0  0  0  0  0  0
   16.3798   34.6316   34.5047 N   0  0  0  0  0  0  0  0  0  0  0  0
   15.9002   35.1933   36.8095 N   0  0  0  0  0  0  0  0  0  0  0  0
    9.0093   45.4349   33.6673 H   0  0  0  0  0  0  0  0  0  0  0  0
   11.9344   45.6936   33.0931 H   0  0  0  0  0  0  0  0  0  0  0  0
   11.1127   46.1992   34.4885 H   0  0  0  0  0  0  0  0  0  0  0  0
   10.7302   44.8937   31.1676 H   0  0  0  0  0  0  0  0  0  0  0  0
    9.3511   43.8352   31.4760 H   0  0  0  0  0  0  0  0  0  0  0  0
    7.0100   44.7134   31.5792 H   0  0  0  0  0  0  0  0  0  0  0  0
   10.3475   47.1887   30.4109 H   0  0  0  0  0  0  0  0  0  0  0  0
    5.4624   46.3001   30.4913 H   0  0  0  0  0  0  0  0  0  0  0  0
    8.7905   48.7704   29.3366 H   0  0  0  0  0  0  0  0  0  0  0  0
    4.7907   50.1039   29.2322 H   0  0  0  0  0  0  0  0  0  0  0  0
    5.9294   51.4813   30.9653 H   0  0  0  0  0  0  0  0  0  0  0  0
    6.8952   51.1731   29.4754 H   0  0  0  0  0  0  0  0  0  0  0  0
    7.2903   50.2884   30.9825 H   0  0  0  0  0  0  0  0  0  0  0  0
    6.2431   49.0983   32.5870 H   0  0  0  0  0  0  0  0  0  0  0  0
    1.4518   47.9227   31.8705 H   0  0  0  0  0  0  0  0  0  0  0  0
    3.3037   48.3795   36.2353 H   0  0  0  0  0  0  0  0  0  0  0  0
    3.7739   46.6642   35.8129 H   0  0  0  0  0  0  0  0  0  0  0  0
   11.3776   41.5548   31.4748 H   0  0  0  0  0  0  0  0  0  0  0  0
    9.8234   40.7201   31.7651 H   0  0  0  0  0  0  0  0  0  0  0  0
   11.7311   39.5362   30.3530 H   0  0  0  0  0  0  0  0  0  0  0  0
   10.1202   38.2694   32.6408 H   0  0  0  0  0  0  0  0  0  0  0  0
   13.6851   37.4639   31.2321 H   0  0  0  0  0  0  0  0  0  0  0  0
   10.0251   38.1793   29.7653 H   0  0  0  0  0  0  0  0  0  0  0  0
   11.2759   36.3134   32.4907 H   0  0  0  0  0  0  0  0  0  0  0  0
   11.9836   36.9110   29.7707 H   0  0  0  0  0  0  0  0  0  0  0  0
   12.3307   38.3540   34.7456 H   0  0  0  0  0  0  0  0  0  0  0  0
   16.7566   34.1786   32.4624 H   0  0  0  0  0  0  0  0  0  0  0  0
   16.6351   34.5303   37.1420 H   0  0  0  0  0  0  0  0  0  0  0  0
   15.3533   35.7357   37.5145 H   0  0  0  0  0  0  0  0  0  0  0  0
  1  2  2  0
  1  3  1  0
  3  4  1  0
  4  5  1  0
  6  1  1  0
  7  6  1  0
  6  8  1  0
  8  9  1  0
  9 10  2  0
 11  9  1  0
 10 12  1  0
 13 11  2  0
 12 14  2  0
 14 13  1  0
 14 15  1  0
 15 16  1  0
 16 17  1  0
 16 18  1  0
 18 19  2  0
 20 18  1  0
 19 21  1  0
 22 20  2  0
 20 23  1  0
 21 24  1  0
 21 25  2  0
 25 22  1  0
 23 26  1  0
 23 27  2  0
 24 28  1  0
 25 29  1  0
 28 29  1  0
  4 30  2  0
  4 31  1  0
 32 31  1  0
 32 33  1  0
 33 34  1  0
 33 35  1  0
 34 36  1  0
 35 37  1  0
 35 38  1  0
 38 36  1  0
 36 39  1  0
 38 40  1  0
 41 39  1  0
 42 39  1  0
 43 41  2  0
 41 44  1  0
 45 42  2  0
 46 43  1  0
 44 47  2  0
 44 45  1  0
 48 46  2  0
 48 47  1  0
 47 49  1  0
  6 50  1  1
  7 51  1  0
  7 52  1  0
  8 53  1  0
  8 54  1  0
 10 55  1  0
 11 56  1  0
 12 57  1  0
 13 58  1  0
 16 59  1  6
 17 60  1  0
 17 61  1  0
 17 62  1  0
 19 63  1  0
 22 64  1  0
 28 65  1  0
 28 66  1  0
 32 67  1  0
 32 68  1  0
 33 69  1  0
 35 70  1  0
 36 71  1  0
 37 72  1  0
 38 73  1  0
 40 74  1  0
 42 75  1  0
 46 76  1  0
 49 77  1  0
 49 78  1  0
M  CHG  3   5  -1  23   1  26  -1
M  END
>  <EmbedRMS>  (53) 
0.0818293190092

$$$$

     RDKit          3D

 78 83  0  0  0  0  0  0  0  0999 V2000
   10.2804   43.7665   33.8250 C   0  0  0  0  0  0  0  0  0  0  0  0
   11.4110   43.5919   34.3666 O   0  0  0  0  0  0  0  0  0  0  0  0
    9.3619   42.7250   33.7344 O   0  0  0  0  0  0  0  0  0  0  0  0
    9.8903   41.2265   34.2931 P   0  0  0  0  0  0  0  0  0  0  0  0
   10.3742   41.4563   35.8824 O   0  0  0  0  0  0  0  0  0  0  0  0
    9.9459   45.0737   33.2113 C   0  0  1  0  0  0  0  0  0  0  0  0
   11.0266   46.0293   33.4710 N   0  0  0  0  0  0  0  0  0  0  0  0
    9.7540   44.8543   31.6950 C   0  0  0  0  0  0  0  0  0  0  0  0
    8.7958   45.8414   31.0851 C   0  0  0  0  0  0  0  0  0  0  0  0
    7.4092   45.5998   31.1006 C   0  0  0  0  0  0  0  0  0  0  0  0
    9.2824   46.9875   30.4390 C   0  0  0  0  0  0  0  0  0  0  0  0
    6.5262   46.4983   30.4854 C   0  0  0  0  0  0  0  0  0  0  0  0
    8.3997   47.8866   29.8301 C   0  0  0  0  0  0  0  0  0  0  0  0
    7.0177   47.6562   29.8487 C   0  0  0  0  0  0  0  0  0  0  0  0
    6.1806   48.5967   29.2257 O   0  0  0  0  0  0  0  0  0  0  0  0
    4.7528   48.5801   29.2457 C   0  0  2  0  0  0  0  0  0  0  0  0
    4.2177   49.5787   28.2189 C   0  0  0  0  0  0  0  0  0  0  0  0
    4.2129   48.8841   30.6358 C   0  0  0  0  0  0  0  0  0  0  0  0
    3.3090   47.9597   31.2150 C   0  0  0  0  0  0  0  0  0  0  0  0
    4.5351   50.0854   31.3531 C   0  0  0  0  0  0  0  0  0  0  0  0
    2.7692   48.2476   32.4617 C   0  0  0  0  0  0  0  0  0  0  0  0
    3.9438   50.3315   32.6120 C   0  0  0  0  0  0  0  0  0  0  0  0
    5.4332   51.0658   30.8200 N   0  0  0  0  0  0  0  0  0  0  0  0
    1.8807   47.4967   33.2070 O   0  0  0  0  0  0  0  0  0  0  0  0
    3.0721   49.3838   33.1301 C   0  0  0  0  0  0  0  0  0  0  0  0
    6.7670   50.7651   30.6787 O   0  0  0  0  0  0  0  0  0  0  0  0
    5.0774   52.2610   30.7685 O   0  0  0  0  0  0  0  0  0  0  0  0
    1.6109   48.2084   34.4225 C   0  0  0  0  0  0  0  0  0  0  0  0
    2.3915   49.4082   34.3322 O   0  0  0  0  0  0  0  0  0  0  0  0
    8.8124   40.1845   34.2129 O   0  0  0  0  0  0  0  0  0  0  0  0
   11.2404   40.7948   33.3669 O   0  0  0  0  0  0  0  0  0  0  0  0
   10.9133   40.6866   31.9952 C   0  0  0  0  0  0  0  0  0  0  0  0
   11.5166   39.3787   31.4404 C   0  0  0  0  0  0  0  0  0  0  0  0
   12.7485   39.0849   32.0735 O   0  0  0  0  0  0  0  0  0  0  0  0
   10.6039   38.1884   31.6669 C   0  0  0  0  0  0  0  0  0  0  0  0
   12.9329   37.6776   32.0284 C   0  0  0  0  0  0  0  0  0  0  0  0
    9.6374   38.0938   30.6484 O   0  0  0  0  0  0  0  0  0  0  0  0
   11.5737   37.0140   31.7055 C   0  0  0  0  0  0  0  0  0  0  0  0
   13.4853   37.2120   33.3238 N   0  0  0  0  0  0  0  0  0  0  0  0
   11.6210   36.3379   30.4683 O   0  0  0  0  0  0  0  0  0  0  0  0
   14.4804   36.3319   33.5726 C   0  0  0  0  0  0  0  0  0  0  0  0
   13.1141   37.6275   34.5689 C   0  0  0  0  0  0  0  0  0  0  0  0
   15.2075   35.6152   32.6740 N   0  0  0  0  0  0  0  0  0  0  0  0
   14.6761   36.2306   34.9181 C   0  0  0  0  0  0  0  0  0  0  0  0
   13.8218   37.0451   35.5783 N   0  0  0  0  0  0  0  0  0  0  0  0
   16.1642   34.7600   33.1548 C   0  0  0  0  0  0  0  0  0  0  0  0
   15.6527   35.3507   35.4131 C   0  0  0  0  0  0  0  0  0  0  0  0
   16.3795   34.6315   34.5043 N   0  0  0  0  0  0  0  0  0  0  0  0
   15.9000   35.1933   36.8090 N   0  0  0  0  0  0  0  0  0  0  0  0
    8.9995   45.4382   33.6722 H   0  0  0  0  0  0  0  0  0  0  0  0
   10.7763   46.9370   33.0161 H   0  0  0  0  0  0  0  0  0  0  0  0
   11.0501   46.2278   34.4984 H   0  0  0  0  0  0  0  0  0  0  0  0
    9.3647   43.8356   31.4711 H   0  0  0  0  0  0  0  0  0  0  0  0
   10.7412   44.9082   31.1837 H   0  0  0  0  0  0  0  0  0  0  0  0
    7.0153   44.7136   31.5830 H   0  0  0  0  0  0  0  0  0  0  0  0
   10.3463   47.1873   30.4044 H   0  0  0  0  0  0  0  0  0  0  0  0
    5.4704   46.2754   30.5084 H   0  0  0  0  0  0  0  0  0  0  0  0
    8.7917   48.7689   29.3403 H   0  0  0  0  0  0  0  0  0  0  0  0
    4.4084   47.5784   28.9044 H   0  0  0  0  0  0  0  0  0  0  0  0
    4.6036   50.6006   28.4089 H   0  0  0  0  0  0  0  0  0  0  0  0
    4.5386   49.2730   27.2005 H   0  0  0  0  0  0  0  0  0  0  0  0
    3.1070   49.5985   28.2452 H   0  0  0  0  0  0  0  0  0  0  0  0
    3.0259   47.0468   30.7066 H   0  0  0  0  0  0  0  0  0  0  0  0
    4.1676   51.2311   33.1710 H   0  0  0  0  0  0  0  0  0  0  0  0
    1.9321   47.6074   35.2989 H   0  0  0  0  0  0  0  0  0  0  0  0
    0.5312   48.4580   34.4899 H   0  0  0  0  0  0  0  0  0  0  0  0
   11.3826   41.5438   31.4666 H   0  0  0  0  0  0  0  0  0  0  0  0
    9.8224   40.7224   31.7629 H   0  0  0  0  0  0  0  0  0  0  0  0
   11.6979   39.5036   30.3478 H   0  0  0  0  0  0  0  0  0  0  0  0
   10.1083   38.2786   32.6626 H   0  0  0  0  0  0  0  0  0  0  0  0
   13.6638   37.4473   31.2214 H   0  0  0  0  0  0  0  0  0  0  0  0
    8.9763   37.4191   30.9532 H   0  0  0  0  0  0  0  0  0  0  0  0
   11.2821   36.3054   32.5171 H   0  0  0  0  0  0  0  0  0  0  0  0
   10.8658   35.6935   30.4652 H   0  0  0  0  0  0  0  0  0  0  0  0
   12.3294   38.3523   34.7445 H   0  0  0  0  0  0  0  0  0  0  0  0
   16.7561   34.1778   32.4621 H   0  0  0  0  0  0  0  0  0  0  0  0
   16.6345   34.5300   37.1416 H   0  0  0  0  0  0  0  0  0  0  0  0
   15.3533   35.7361   37.5138 H   0  0  0  0  0  0  0  0  0  0  0  0
  1  2  2  0
  1  3  1  0
  3  4  1  0
  4  5  1  0
  6  1  1  0
  7  6  1  0
  6  8  1  0
  8  9  1  0
  9 10  2  0
 11  9  1  0
 10 12  1  0
 13 11  2  0
 12 14  2  0
 14 13  1  0
 14 15  1  0
 15 16  1  0
 16 17  1  0
 16 18  1  0
 18 19  2  0
 20 18  1  0
 19 21  1  0
 22 20  2  0
 20 23  1  0
 21 24  1  0
 21 25  2  0
 25 22  1  0
 23 26  1  0
 23 27  2  0
 24 28  1  0
 25 29  1  0
 28 29  1  0
  4 30  2  0
  4 31  1  0
 32 31  1  0
 32 33  1  0
 33 34  1  0
 33 35  1  0
 34 36  1  0
 35 37  1  0
 35 38  1  0
 38 36  1  0
 36 39  1  0
 38 40  1  0
 41 39  1  0
 42 39  1  0
 43 41  2  0
 41 44  1  0
 45 42  2  0
 46 43  1  0
 44 47  2  0
 44 45  1  0
 48 46  2  0
 48 47  1  0
 47 49  1  0
  6 50  1  1
  7 51  1  0
  7 52  1  0
  8 53  1  0
  8 54  1  0
 10 55  1  0
 11 56  1  0
 12 57  1  0
 13 58  1  0
 16 59  1  6
 17 60  1  0
 17 61  1  0
 17 62  1  0
 19 63  1  0
 22 64  1  0
 28 65  1  0
 28 66  1  0
 32 67  1  0
 32 68  1  0
 33 69  1  0
 35 70  1  0
 36 71  1  0
 37 72  1  0
 38 73  1  0
 40 74  1  0
 42 75  1  0
 46 76  1  0
 49 77  1  0
 49 78  1  0
M  CHG  3   5  -1  23   1  26  -1
M  END
>  <EmbedRMS>  (54) 
0.0823714368474

$$$$

     RDKit          3D

 78 83  0  0  0  0  0  0  0  0999 V2000
   10.2831   43.7664   33.8255 C   0  0  0  0  0  0  0  0  0  0  0  0
   11.4100   43.5932   34.3749 O   0  0  0  0  0  0  0  0  0  0  0  0
    9.3635   42.7256   33.7349 O   0  0  0  0  0  0  0  0  0  0  0  0
    9.8902   41.2268   34.2941 P   0  0  0  0  0  0  0  0  0  0  0  0
   10.3736   41.4560   35.8836 O   0  0  0  0  0  0  0  0  0  0  0  0
    9.9542   45.0698   33.2035 C   0  0  1  0  0  0  0  0  0  0  0  0
   11.0268   46.0325   33.4759 N   0  0  0  0  0  0  0  0  0  0  0  0
    9.7465   44.8489   31.6875 C   0  0  0  0  0  0  0  0  0  0  0  0
    8.7921   45.8416   31.0845 C   0  0  0  0  0  0  0  0  0  0  0  0
    7.4044   45.6002   31.0981 C   0  0  0  0  0  0  0  0  0  0  0  0
    9.2825   46.9884   30.4394 C   0  0  0  0  0  0  0  0  0  0  0  0
    6.5253   46.5005   30.4814 C   0  0  0  0  0  0  0  0  0  0  0  0
    8.4012   47.8887   29.8284 C   0  0  0  0  0  0  0  0  0  0  0  0
    7.0203   47.6545   29.8570 C   0  0  0  0  0  0  0  0  0  0  0  0
    6.1408   48.5579   29.2531 O   0  0  0  0  0  0  0  0  0  0  0  0
    5.5166   49.6389   29.9538 C   0  0  2  0  0  0  0  0  0  0  0  0
    6.5351   50.7369   30.2933 C   0  0  0  0  0  0  0  0  0  0  0  0
    4.7290   49.1363   31.1604 C   0  0  0  0  0  0  0  0  0  0  0  0
    5.3827   48.9564   32.4079 C   0  0  0  0  0  0  0  0  0  0  0  0
    3.3313   48.8213   31.0577 C   0  0  0  0  0  0  0  0  0  0  0  0
    4.6332   48.5358   33.4979 C   0  0  0  0  0  0  0  0  0  0  0  0
    2.6169   48.4187   32.2087 C   0  0  0  0  0  0  0  0  0  0  0  0
    2.6350   48.8689   29.8019 N   0  0  0  0  0  0  0  0  0  0  0  0
    5.0567   48.3046   34.7926 O   0  0  0  0  0  0  0  0  0  0  0  0
    3.3078   48.2861   33.4047 C   0  0  0  0  0  0  0  0  0  0  0  0
    1.3099   49.2374   29.7683 O   0  0  0  0  0  0  0  0  0  0  0  0
    3.1436   48.3608   28.7815 O   0  0  0  0  0  0  0  0  0  0  0  0
    3.9213   47.8839   35.5609 C   0  0  0  0  0  0  0  0  0  0  0  0
    2.8254   47.8857   34.6359 O   0  0  0  0  0  0  0  0  0  0  0  0
    8.8121   40.1851   34.2130 O   0  0  0  0  0  0  0  0  0  0  0  0
   11.2404   40.7942   33.3690 O   0  0  0  0  0  0  0  0  0  0  0  0
   10.9144   40.6899   31.9972 C   0  0  0  0  0  0  0  0  0  0  0  0
   11.5261   39.3884   31.4376 C   0  0  0  0  0  0  0  0  0  0  0  0
   12.7504   39.0888   32.0816 O   0  0  0  0  0  0  0  0  0  0  0  0
   10.6114   38.1910   31.6461 C   0  0  0  0  0  0  0  0  0  0  0  0
   12.9357   37.6813   32.0304 C   0  0  0  0  0  0  0  0  0  0  0  0
    9.6145   38.0859   30.6534 O   0  0  0  0  0  0  0  0  0  0  0  0
   11.5769   37.0148   31.7012 C   0  0  0  0  0  0  0  0  0  0  0  0
   13.4849   37.2112   33.3248 N   0  0  0  0  0  0  0  0  0  0  0  0
   11.6193   36.3262   30.4724 O   0  0  0  0  0  0  0  0  0  0  0  0
   14.4803   36.3314   33.5730 C   0  0  0  0  0  0  0  0  0  0  0  0
   13.1141   37.6267   34.5698 C   0  0  0  0  0  0  0  0  0  0  0  0
   15.2075   35.6151   32.6741 N   0  0  0  0  0  0  0  0  0  0  0  0
   14.6761   36.2301   34.9184 C   0  0  0  0  0  0  0  0  0  0  0  0
   13.8220   37.0444   35.5789 N   0  0  0  0  0  0  0  0  0  0  0  0
   16.1643   34.7600   33.1547 C   0  0  0  0  0  0  0  0  0  0  0  0
   15.6529   35.3503   35.4132 C   0  0  0  0  0  0  0  0  0  0  0  0
   16.3798   34.6314   34.5042 N   0  0  0  0  0  0  0  0  0  0  0  0
   15.9004   35.1930   36.8091 N   0  0  0  0  0  0  0  0  0  0  0  0
    9.0114   45.4321   33.6712 H   0  0  0  0  0  0  0  0  0  0  0  0
   11.8901   45.7664   32.9472 H   0  0  0  0  0  0  0  0  0  0  0  0
   10.7252   46.9691   33.1218 H   0  0  0  0  0  0  0  0  0  0  0  0
    9.3418   43.8337   31.4758 H   0  0  0  0  0  0  0  0  0  0  0  0
   10.7230   44.8829   31.1557 H   0  0  0  0  0  0  0  0  0  0  0  0
    7.0076   44.7149   31.5794 H   0  0  0  0  0  0  0  0  0  0  0  0
   10.3469   47.1851   30.4055 H   0  0  0  0  0  0  0  0  0  0  0  0
    5.4604   46.3058   30.4956 H   0  0  0  0  0  0  0  0  0  0  0  0
    8.7912   48.7692   29.3341 H   0  0  0  0  0  0  0  0  0  0  0  0
    4.8117   50.1257   29.2485 H   0  0  0  0  0  0  0  0  0  0  0  0
    6.9467   51.1640   29.3541 H   0  0  0  0  0  0  0  0  0  0  0  0
    7.3849   50.3424   30.8855 H   0  0  0  0  0  0  0  0  0  0  0  0
    6.0419   51.5532   30.8631 H   0  0  0  0  0  0  0  0  0  0  0  0
    6.4416   49.1306   32.5344 H   0  0  0  0  0  0  0  0  0  0  0  0
    1.5621   48.1801   32.1631 H   0  0  0  0  0  0  0  0  0  0  0  0
    3.7281   48.6019   36.3853 H   0  0  0  0  0  0  0  0  0  0  0  0
    4.0851   46.8607   35.9592 H   0  0  0  0  0  0  0  0  0  0  0  0
   11.3781   41.5526   31.4726 H   0  0  0  0  0  0  0  0  0  0  0  0
    9.8234   40.7192   31.7646 H   0  0  0  0  0  0  0  0  0  0  0  0
   11.7283   39.5310   30.3516 H   0  0  0  0  0  0  0  0  0  0  0  0
   10.1125   38.2734   32.6377 H   0  0  0  0  0  0  0  0  0  0  0  0
   13.6693   37.4567   31.2242 H   0  0  0  0  0  0  0  0  0  0  0  0
   10.0533   38.1117   29.7636 H   0  0  0  0  0  0  0  0  0  0  0  0
   11.2607   36.3148   32.5101 H   0  0  0  0  0  0  0  0  0  0  0  0
   12.1496   35.5024   30.6323 H   0  0  0  0  0  0  0  0  0  0  0  0
   12.3299   38.3521   34.7457 H   0  0  0  0  0  0  0  0  0  0  0  0
   16.7564   34.1782   32.4619 H   0  0  0  0  0  0  0  0  0  0  0  0
   16.6350   34.5299   37.1417 H   0  0  0  0  0  0  0  0  0  0  0  0
   15.3535   35.7357   37.5139 H   0  0  0  0  0  0  0  0  0  0  0  0
  1  2  2  0
  1  3  1  0
  3  4  1  0
  4  5  1  0
  6  1  1  0
  7  6  1  0
  6  8  1  0
  8  9  1  0
  9 10  2  0
 11  9  1  0
 10 12  1  0
 13 11  2  0
 12 14  2  0
 14 13  1  0
 14 15  1  0
 15 16  1  0
 16 17  1  0
 16 18  1  0
 18 19  2  0
 20 18  1  0
 19 21  1  0
 22 20  2  0
 20 23  1  0
 21 24  1  0
 21 25  2  0
 25 22  1  0
 23 26  1  0
 23 27  2  0
 24 28  1  0
 25 29  1  0
 28 29  1  0
  4 30  2  0
  4 31  1  0
 32 31  1  0
 32 33  1  0
 33 34  1  0
 33 35  1  0
 34 36  1  0
 35 37  1  0
 35 38  1  0
 38 36  1  0
 36 39  1  0
 38 40  1  0
 41 39  1  0
 42 39  1  0
 43 41  2  0
 41 44  1  0
 45 42  2  0
 46 43  1  0
 44 47  2  0
 44 45  1  0
 48 46  2  0
 48 47  1  0
 47 49  1  0
  6 50  1  1
  7 51  1  0
  7 52  1  0
  8 53  1  0
  8 54  1  0
 10 55  1  0
 11 56  1  0
 12 57  1  0
 13 58  1  0
 16 59  1  6
 17 60  1  0
 17 61  1  0
 17 62  1  0
 19 63  1  0
 22 64  1  0
 28 65  1  0
 28 66  1  0
 32 67  1  0
 32 68  1  0
 33 69  1  0
 35 70  1  0
 36 71  1  0
 37 72  1  0
 38 73  1  0
 40 74  1  0
 42 75  1  0
 46 76  1  0
 49 77  1  0
 49 78  1  0
M  CHG  3   5  -1  23   1  26  -1
M  END
>  <EmbedRMS>  (55) 
0.0817446462596

$$$$

     RDKit          3D

 78 83  0  0  0  0  0  0  0  0999 V2000
   10.2834   43.7662   33.8256 C   0  0  0  0  0  0  0  0  0  0  0  0
   11.4102   43.5931   34.3752 O   0  0  0  0  0  0  0  0  0  0  0  0
    9.3637   42.7255   33.7349 O   0  0  0  0  0  0  0  0  0  0  0  0
    9.8903   41.2267   34.2942 P   0  0  0  0  0  0  0  0  0  0  0  0
   10.3735   41.4561   35.8836 O   0  0  0  0  0  0  0  0  0  0  0  0
    9.9546   45.0696   33.2035 C   0  0  1  0  0  0  0  0  0  0  0  0
   11.0271   46.0324   33.4760 N   0  0  0  0  0  0  0  0  0  0  0  0
    9.7471   44.8484   31.6875 C   0  0  0  0  0  0  0  0  0  0  0  0
    8.7925   45.8408   31.0842 C   0  0  0  0  0  0  0  0  0  0  0  0
    7.4059   45.6007   31.0990 C   0  0  0  0  0  0  0  0  0  0  0  0
    9.2818   46.9876   30.4414 C   0  0  0  0  0  0  0  0  0  0  0  0
    6.5245   46.5005   30.4845 C   0  0  0  0  0  0  0  0  0  0  0  0
    8.4006   47.8878   29.8317 C   0  0  0  0  0  0  0  0  0  0  0  0
    7.0188   47.6575   29.8478 C   0  0  0  0  0  0  0  0  0  0  0  0
    6.1811   48.6012   29.2306 O   0  0  0  0  0  0  0  0  0  0  0  0
    4.7523   48.5601   29.2276 C   0  0  2  0  0  0  0  0  0  0  0  0
    4.2049   49.6006   28.2511 C   0  0  0  0  0  0  0  0  0  0  0  0
    4.1656   48.7689   30.6164 C   0  0  0  0  0  0  0  0  0  0  0  0
    2.9632   48.0850   30.9191 C   0  0  0  0  0  0  0  0  0  0  0  0
    4.7881   49.5731   31.6348 C   0  0  0  0  0  0  0  0  0  0  0  0
    2.4397   48.1913   32.2003 C   0  0  0  0  0  0  0  0  0  0  0  0
    4.2154   49.6280   32.9256 C   0  0  0  0  0  0  0  0  0  0  0  0
    5.9912   50.3197   31.3957 N   0  0  0  0  0  0  0  0  0  0  0  0
    1.2961   47.6089   32.7119 O   0  0  0  0  0  0  0  0  0  0  0  0
    3.0415   48.9266   33.1622 C   0  0  0  0  0  0  0  0  0  0  0  0
    6.9495   50.4010   32.3795 O   0  0  0  0  0  0  0  0  0  0  0  0
    6.0817   51.0721   30.4050 O   0  0  0  0  0  0  0  0  0  0  0  0
    1.1735   48.0062   34.0844 C   0  0  0  0  0  0  0  0  0  0  0  0
    2.3088   48.8472   34.3308 O   0  0  0  0  0  0  0  0  0  0  0  0
    8.8121   40.1850   34.2130 O   0  0  0  0  0  0  0  0  0  0  0  0
   11.2407   40.7940   33.3693 O   0  0  0  0  0  0  0  0  0  0  0  0
   10.9151   40.6905   31.9974 C   0  0  0  0  0  0  0  0  0  0  0  0
   11.5252   39.3886   31.4375 C   0  0  0  0  0  0  0  0  0  0  0  0
   12.7500   39.0874   32.0799 O   0  0  0  0  0  0  0  0  0  0  0  0
   10.6092   38.1926   31.6470 C   0  0  0  0  0  0  0  0  0  0  0  0
   12.9332   37.6793   32.0294 C   0  0  0  0  0  0  0  0  0  0  0  0
    9.6122   38.0895   30.6542 O   0  0  0  0  0  0  0  0  0  0  0  0
   11.5743   37.0145   31.7024 C   0  0  0  0  0  0  0  0  0  0  0  0
   13.4844   37.2108   33.3241 N   0  0  0  0  0  0  0  0  0  0  0  0
   11.6297   36.3239   30.4740 O   0  0  0  0  0  0  0  0  0  0  0  0
   14.4802   36.3313   33.5727 C   0  0  0  0  0  0  0  0  0  0  0  0
   13.1138   37.6267   34.5692 C   0  0  0  0  0  0  0  0  0  0  0  0
   15.2075   35.6149   32.6739 N   0  0  0  0  0  0  0  0  0  0  0  0
   14.6761   36.2303   34.9181 C   0  0  0  0  0  0  0  0  0  0  0  0
   13.8220   37.0447   35.5785 N   0  0  0  0  0  0  0  0  0  0  0  0
   16.1643   34.7600   33.1547 C   0  0  0  0  0  0  0  0  0  0  0  0
   15.6529   35.3505   35.4130 C   0  0  0  0  0  0  0  0  0  0  0  0
   16.3798   34.6315   34.5042 N   0  0  0  0  0  0  0  0  0  0  0  0
   15.9003   35.1932   36.8090 N   0  0  0  0  0  0  0  0  0  0  0  0
    9.0118   45.4318   33.6711 H   0  0  0  0  0  0  0  0  0  0  0  0
   10.7256   46.9690   33.1217 H   0  0  0  0  0  0  0  0  0  0  0  0
   11.8906   45.7662   32.9475 H   0  0  0  0  0  0  0  0  0  0  0  0
   10.7236   44.8825   31.1558 H   0  0  0  0  0  0  0  0  0  0  0  0
    9.3426   43.8331   31.4758 H   0  0  0  0  0  0  0  0  0  0  0  0
    7.0102   44.7153   31.5814 H   0  0  0  0  0  0  0  0  0  0  0  0
   10.3460   47.1862   30.4101 H   0  0  0  0  0  0  0  0  0  0  0  0
    5.4661   46.2848   30.5135 H   0  0  0  0  0  0  0  0  0  0  0  0
    8.7933   48.7717   29.3453 H   0  0  0  0  0  0  0  0  0  0  0  0
    4.4411   47.5666   28.8332 H   0  0  0  0  0  0  0  0  0  0  0  0
    4.4393   50.6317   28.5826 H   0  0  0  0  0  0  0  0  0  0  0  0
    4.6496   49.4414   27.2459 H   0  0  0  0  0  0  0  0  0  0  0  0
    3.1018   49.4986   28.1654 H   0  0  0  0  0  0  0  0  0  0  0  0
    2.4589   47.4743   30.1806 H   0  0  0  0  0  0  0  0  0  0  0  0
    4.6637   50.2168   33.7156 H   0  0  0  0  0  0  0  0  0  0  0  0
    1.2055   47.1156   34.7465 H   0  0  0  0  0  0  0  0  0  0  0  0
    0.2336   48.5771   34.2365 H   0  0  0  0  0  0  0  0  0  0  0  0
   11.3802   41.5529   31.4733 H   0  0  0  0  0  0  0  0  0  0  0  0
    9.8243   40.7216   31.7643 H   0  0  0  0  0  0  0  0  0  0  0  0
   11.7266   39.5311   30.3513 H   0  0  0  0  0  0  0  0  0  0  0  0
   10.1110   38.2747   32.6387 H   0  0  0  0  0  0  0  0  0  0  0  0
   13.6652   37.4519   31.2226 H   0  0  0  0  0  0  0  0  0  0  0  0
   10.0511   38.1143   29.7645 H   0  0  0  0  0  0  0  0  0  0  0  0
   11.2762   36.3141   32.5189 H   0  0  0  0  0  0  0  0  0  0  0  0
   10.8593   35.6978   30.4640 H   0  0  0  0  0  0  0  0  0  0  0  0
   12.3294   38.3518   34.7449 H   0  0  0  0  0  0  0  0  0  0  0  0
   16.7564   34.1780   32.4620 H   0  0  0  0  0  0  0  0  0  0  0  0
   16.6349   34.5300   37.1415 H   0  0  0  0  0  0  0  0  0  0  0  0
   15.3534   35.7359   37.5138 H   0  0  0  0  0  0  0  0  0  0  0  0
  1  2  2  0
  1  3  1  0
  3  4  1  0
  4  5  1  0
  6  1  1  0
  7  6  1  0
  6  8  1  0
  8  9  1  0
  9 10  2  0
 11  9  1  0
 10 12  1  0
 13 11  2  0
 12 14  2  0
 14 13  1  0
 14 15  1  0
 15 16  1  0
 16 17  1  0
 16 18  1  0
 18 19  2  0
 20 18  1  0
 19 21  1  0
 22 20  2  0
 20 23  1  0
 21 24  1  0
 21 25  2  0
 25 22  1  0
 23 26  1  0
 23 27  2  0
 24 28  1  0
 25 29  1  0
 28 29  1  0
  4 30  2  0
  4 31  1  0
 32 31  1  0
 32 33  1  0
 33 34  1  0
 33 35  1  0
 34 36  1  0
 35 37  1  0
 35 38  1  0
 38 36  1  0
 36 39  1  0
 38 40  1  0
 41 39  1  0
 42 39  1  0
 43 41  2  0
 41 44  1  0
 45 42  2  0
 46 43  1  0
 44 47  2  0
 44 45  1  0
 48 46  2  0
 48 47  1  0
 47 49  1  0
  6 50  1  1
  7 51  1  0
  7 52  1  0
  8 53  1  0
  8 54  1  0
 10 55  1  0
 11 56  1  0
 12 57  1  0
 13 58  1  0
 16 59  1  6
 17 60  1  0
 17 61  1  0
 17 62  1  0
 19 63  1  0
 22 64  1  0
 28 65  1  0
 28 66  1  0
 32 67  1  0
 32 68  1  0
 33 69  1  0
 35 70  1  0
 36 71  1  0
 37 72  1  0
 38 73  1  0
 40 74  1  0
 42 75  1  0
 46 76  1  0
 49 77  1  0
 49 78  1  0
M  CHG  3   5  -1  23   1  26  -1
M  END
>  <EmbedRMS>  (56) 
0.0818176744621

$$$$

     RDKit          3D

 78 83  0  0  0  0  0  0  0  0999 V2000
   10.2835   43.7661   33.8258 C   0  0  0  0  0  0  0  0  0  0  0  0
   11.4103   43.5930   34.3753 O   0  0  0  0  0  0  0  0  0  0  0  0
    9.3638   42.7255   33.7352 O   0  0  0  0  0  0  0  0  0  0  0  0
    9.8904   41.2267   34.2947 P   0  0  0  0  0  0  0  0  0  0  0  0
   10.3729   41.4561   35.8843 O   0  0  0  0  0  0  0  0  0  0  0  0
    9.9547   45.0694   33.2037 C   0  0  1  0  0  0  0  0  0  0  0  0
   11.0274   46.0321   33.4757 N   0  0  0  0  0  0  0  0  0  0  0  0
    9.7465   44.8480   31.6879 C   0  0  0  0  0  0  0  0  0  0  0  0
    8.7922   45.8408   31.0848 C   0  0  0  0  0  0  0  0  0  0  0  0
    7.4058   45.6014   31.0988 C   0  0  0  0  0  0  0  0  0  0  0  0
    9.2821   46.9873   30.4423 C   0  0  0  0  0  0  0  0  0  0  0  0
    6.5272   46.5027   30.4831 C   0  0  0  0  0  0  0  0  0  0  0  0
    8.4035   47.8896   29.8308 C   0  0  0  0  0  0  0  0  0  0  0  0
    7.0132   47.6544   29.8485 C   0  0  0  0  0  0  0  0  0  0  0  0
    6.0821   48.5186   29.2482 O   0  0  0  0  0  0  0  0  0  0  0  0
    6.3695   49.7920   28.6642 C   0  0  2  0  0  0  0  0  0  0  0  0
    6.6477   50.8319   29.7580 C   0  0  0  0  0  0  0  0  0  0  0  0
    5.1828   50.2186   27.8187 C   0  0  0  0  0  0  0  0  0  0  0  0
    3.9154   50.3399   28.4418 C   0  0  0  0  0  0  0  0  0  0  0  0
    5.3092   50.5400   26.4264 C   0  0  0  0  0  0  0  0  0  0  0  0
    2.8465   50.8085   27.6892 C   0  0  0  0  0  0  0  0  0  0  0  0
    4.1895   51.0284   25.7153 C   0  0  0  0  0  0  0  0  0  0  0  0
    6.5426   50.3495   25.7194 N   0  0  0  0  0  0  0  0  0  0  0  0
    1.5399   51.0144   28.0882 O   0  0  0  0  0  0  0  0  0  0  0  0
    2.9791   51.1441   26.3855 C   0  0  0  0  0  0  0  0  0  0  0  0
    7.1348   49.1076   25.7043 O   0  0  0  0  0  0  0  0  0  0  0  0
    6.9332   51.2139   24.9081 O   0  0  0  0  0  0  0  0  0  0  0  0
    0.8062   51.5114   26.9606 C   0  0  0  0  0  0  0  0  0  0  0  0
    1.7630   51.5786   25.8944 O   0  0  0  0  0  0  0  0  0  0  0  0
    8.8125   40.1848   34.2126 O   0  0  0  0  0  0  0  0  0  0  0  0
   11.2416   40.7948   33.3707 O   0  0  0  0  0  0  0  0  0  0  0  0
   10.9179   40.6921   31.9984 C   0  0  0  0  0  0  0  0  0  0  0  0
   11.5175   39.3837   31.4423 C   0  0  0  0  0  0  0  0  0  0  0  0
   12.7508   39.0887   32.0752 O   0  0  0  0  0  0  0  0  0  0  0  0
   10.6028   38.1916   31.6659 C   0  0  0  0  0  0  0  0  0  0  0  0
   12.9385   37.6818   32.0278 C   0  0  0  0  0  0  0  0  0  0  0  0
    9.6371   38.0806   30.6470 O   0  0  0  0  0  0  0  0  0  0  0  0
   11.5780   37.0215   31.6935 C   0  0  0  0  0  0  0  0  0  0  0  0
   13.4844   37.2119   33.3242 N   0  0  0  0  0  0  0  0  0  0  0  0
   11.6095   36.3201   30.4679 O   0  0  0  0  0  0  0  0  0  0  0  0
   14.4797   36.3318   33.5730 C   0  0  0  0  0  0  0  0  0  0  0  0
   13.1135   37.6278   34.5691 C   0  0  0  0  0  0  0  0  0  0  0  0
   15.2073   35.6155   32.6742 N   0  0  0  0  0  0  0  0  0  0  0  0
   14.6754   36.2305   34.9184 C   0  0  0  0  0  0  0  0  0  0  0  0
   13.8213   37.0452   35.5785 N   0  0  0  0  0  0  0  0  0  0  0  0
   16.1640   34.7604   33.1549 C   0  0  0  0  0  0  0  0  0  0  0  0
   15.6524   35.3507   35.4132 C   0  0  0  0  0  0  0  0  0  0  0  0
   16.3794   34.6318   34.5044 N   0  0  0  0  0  0  0  0  0  0  0  0
   15.9000   35.1934   36.8091 N   0  0  0  0  0  0  0  0  0  0  0  0
    9.0121   45.4317   33.6716 H   0  0  0  0  0  0  0  0  0  0  0  0
   10.7260   46.9687   33.1213 H   0  0  0  0  0  0  0  0  0  0  0  0
   11.8906   45.7658   32.9469 H   0  0  0  0  0  0  0  0  0  0  0  0
   10.7228   44.8812   31.1558 H   0  0  0  0  0  0  0  0  0  0  0  0
    9.3413   43.8329   31.4765 H   0  0  0  0  0  0  0  0  0  0  0  0
    7.0085   44.7163   31.5803 H   0  0  0  0  0  0  0  0  0  0  0  0
   10.3469   47.1831   30.4101 H   0  0  0  0  0  0  0  0  0  0  0  0
    5.4628   46.3055   30.5005 H   0  0  0  0  0  0  0  0  0  0  0  0
    8.8229   48.7572   29.3435 H   0  0  0  0  0  0  0  0  0  0  0  0
    7.2781   49.7177   28.0393 H   0  0  0  0  0  0  0  0  0  0  0  0
    6.7883   51.8358   29.3031 H   0  0  0  0  0  0  0  0  0  0  0  0
    5.8105   50.8776   30.4856 H   0  0  0  0  0  0  0  0  0  0  0  0
    7.5718   50.5736   30.3142 H   0  0  0  0  0  0  0  0  0  0  0  0
    3.7701   50.0886   29.4846 H   0  0  0  0  0  0  0  0  0  0  0  0
    4.2569   51.2828   24.6653 H   0  0  0  0  0  0  0  0  0  0  0  0
    0.4046   52.5231   27.1793 H   0  0  0  0  0  0  0  0  0  0  0  0
   -0.0133   50.8106   26.6964 H   0  0  0  0  0  0  0  0  0  0  0  0
    9.8291   40.7409   31.7627 H   0  0  0  0  0  0  0  0  0  0  0  0
   11.3952   41.5478   31.4744 H   0  0  0  0  0  0  0  0  0  0  0  0
   11.6981   39.5115   30.3500 H   0  0  0  0  0  0  0  0  0  0  0  0
   10.1117   38.2604   32.6661 H   0  0  0  0  0  0  0  0  0  0  0  0
   13.6767   37.4556   31.2267 H   0  0  0  0  0  0  0  0  0  0  0  0
    8.8961   38.6951   30.8872 H   0  0  0  0  0  0  0  0  0  0  0  0
   11.2791   36.3072   32.4922 H   0  0  0  0  0  0  0  0  0  0  0  0
   11.8828   36.9598   29.7589 H   0  0  0  0  0  0  0  0  0  0  0  0
   12.3300   38.3538   34.7446 H   0  0  0  0  0  0  0  0  0  0  0  0
   16.7562   34.1785   32.4622 H   0  0  0  0  0  0  0  0  0  0  0  0
   15.3531   35.7360   37.5140 H   0  0  0  0  0  0  0  0  0  0  0  0
   16.6347   34.5303   37.1416 H   0  0  0  0  0  0  0  0  0  0  0  0
  1  2  2  0
  1  3  1  0
  3  4  1  0
  4  5  1  0
  6  1  1  0
  7  6  1  0
  6  8  1  0
  8  9  1  0
  9 10  2  0
 11  9  1  0
 10 12  1  0
 13 11  2  0
 12 14  2  0
 14 13  1  0
 14 15  1  0
 15 16  1  0
 16 17  1  0
 16 18  1  0
 18 19  2  0
 20 18  1  0
 19 21  1  0
 22 20  2  0
 20 23  1  0
 21 24  1  0
 21 25  2  0
 25 22  1  0
 23 26  1  0
 23 27  2  0
 24 28  1  0
 25 29  1  0
 28 29  1  0
  4 30  2  0
  4 31  1  0
 32 31  1  0
 32 33  1  0
 33 34  1  0
 33 35  1  0
 34 36  1  0
 35 37  1  0
 35 38  1  0
 38 36  1  0
 36 39  1  0
 38 40  1  0
 41 39  1  0
 42 39  1  0
 43 41  2  0
 41 44  1  0
 45 42  2  0
 46 43  1  0
 44 47  2  0
 44 45  1  0
 48 46  2  0
 48 47  1  0
 47 49  1  0
  6 50  1  1
  7 51  1  0
  7 52  1  0
  8 53  1  0
  8 54  1  0
 10 55  1  0
 11 56  1  0
 12 57  1  0
 13 58  1  0
 16 59  1  6
 17 60  1  0
 17 61  1  0
 17 62  1  0
 19 63  1  0
 22 64  1  0
 28 65  1  0
 28 66  1  0
 32 67  1  0
 32 68  1  0
 33 69  1  0
 35 70  1  0
 36 71  1  0
 37 72  1  0
 38 73  1  0
 40 74  1  0
 42 75  1  0
 46 76  1  0
 49 77  1  0
 49 78  1  0
M  CHG  3   5  -1  23   1  26  -1
M  END
>  <EmbedRMS>  (57) 
0.0819614743099

$$$$

     RDKit          3D

 78 83  0  0  0  0  0  0  0  0999 V2000
   10.2834   43.7662   33.8257 C   0  0  0  0  0  0  0  0  0  0  0  0
   11.4102   43.5929   34.3752 O   0  0  0  0  0  0  0  0  0  0  0  0
    9.3635   42.7257   33.7352 O   0  0  0  0  0  0  0  0  0  0  0  0
    9.8899   41.2270   34.2947 P   0  0  0  0  0  0  0  0  0  0  0  0
   10.3732   41.4562   35.8841 O   0  0  0  0  0  0  0  0  0  0  0  0
    9.9548   45.0695   33.2036 C   0  0  1  0  0  0  0  0  0  0  0  0
   11.0274   46.0322   33.4760 N   0  0  0  0  0  0  0  0  0  0  0  0
    9.7472   44.8483   31.6876 C   0  0  0  0  0  0  0  0  0  0  0  0
    8.7928   45.8410   31.0846 C   0  0  0  0  0  0  0  0  0  0  0  0
    7.4066   45.6015   31.0993 C   0  0  0  0  0  0  0  0  0  0  0  0
    9.2816   46.9876   30.4425 C   0  0  0  0  0  0  0  0  0  0  0  0
    6.5250   46.5011   30.4849 C   0  0  0  0  0  0  0  0  0  0  0  0
    8.4000   47.8870   29.8327 C   0  0  0  0  0  0  0  0  0  0  0  0
    7.0174   47.6575   29.8447 C   0  0  0  0  0  0  0  0  0  0  0  0
    6.1937   48.5990   29.2001 O   0  0  0  0  0  0  0  0  0  0  0  0
    4.7629   48.5914   29.1040 C   0  0  2  0  0  0  0  0  0  0  0  0
    4.1415   48.9252   30.4697 C   0  0  0  0  0  0  0  0  0  0  0  0
    4.2501   47.3281   28.4105 C   0  0  0  0  0  0  0  0  0  0  0  0
    3.1949   46.5617   28.9774 C   0  0  0  0  0  0  0  0  0  0  0  0
    4.8470   46.8780   27.1823 C   0  0  0  0  0  0  0  0  0  0  0  0
    2.8098   45.3866   28.3465 C   0  0  0  0  0  0  0  0  0  0  0  0
    4.4199   45.6643   26.5962 C   0  0  0  0  0  0  0  0  0  0  0  0
    5.8849   47.6277   26.5277 N   0  0  0  0  0  0  0  0  0  0  0  0
    1.8293   44.4906   28.7272 O   0  0  0  0  0  0  0  0  0  0  0  0
    3.3991   44.9546   27.2099 C   0  0  0  0  0  0  0  0  0  0  0  0
    5.7639   48.9874   26.3604 O   0  0  0  0  0  0  0  0  0  0  0  0
    6.8111   47.0302   25.9414 O   0  0  0  0  0  0  0  0  0  0  0  0
    1.8035   43.4276   27.7650 C   0  0  0  0  0  0  0  0  0  0  0  0
    2.8217   43.7638   26.8129 O   0  0  0  0  0  0  0  0  0  0  0  0
    8.8120   40.1851   34.2132 O   0  0  0  0  0  0  0  0  0  0  0  0
   11.2402   40.7947   33.3700 O   0  0  0  0  0  0  0  0  0  0  0  0
   10.9144   40.6914   31.9982 C   0  0  0  0  0  0  0  0  0  0  0  0
   11.5270   39.3912   31.4385 C   0  0  0  0  0  0  0  0  0  0  0  0
   12.7520   39.0911   32.0836 O   0  0  0  0  0  0  0  0  0  0  0  0
   10.6113   38.1932   31.6451 C   0  0  0  0  0  0  0  0  0  0  0  0
   12.9413   37.6838   32.0297 C   0  0  0  0  0  0  0  0  0  0  0  0
    9.6064   38.0878   30.6599 O   0  0  0  0  0  0  0  0  0  0  0  0
   11.5822   37.0198   31.6877 C   0  0  0  0  0  0  0  0  0  0  0  0
   13.4840   37.2105   33.3254 N   0  0  0  0  0  0  0  0  0  0  0  0
   11.6179   36.3072   30.4690 O   0  0  0  0  0  0  0  0  0  0  0  0
   14.4797   36.3309   33.5738 C   0  0  0  0  0  0  0  0  0  0  0  0
   13.1136   37.6269   34.5702 C   0  0  0  0  0  0  0  0  0  0  0  0
   15.2074   35.6152   32.6747 N   0  0  0  0  0  0  0  0  0  0  0  0
   14.6756   36.2298   34.9190 C   0  0  0  0  0  0  0  0  0  0  0  0
   13.8217   37.0445   35.5793 N   0  0  0  0  0  0  0  0  0  0  0  0
   16.1643   34.7603   33.1551 C   0  0  0  0  0  0  0  0  0  0  0  0
   15.6528   35.3503   35.4136 C   0  0  0  0  0  0  0  0  0  0  0  0
   16.3798   34.6316   34.5046 N   0  0  0  0  0  0  0  0  0  0  0  0
   15.9004   35.1930   36.8094 N   0  0  0  0  0  0  0  0  0  0  0  0
    9.0121   45.4318   33.6712 H   0  0  0  0  0  0  0  0  0  0  0  0
   11.8909   45.7658   32.9476 H   0  0  0  0  0  0  0  0  0  0  0  0
   10.7262   46.9688   33.1215 H   0  0  0  0  0  0  0  0  0  0  0  0
   10.7237   44.8823   31.1558 H   0  0  0  0  0  0  0  0  0  0  0  0
    9.3426   43.8331   31.4758 H   0  0  0  0  0  0  0  0  0  0  0  0
    7.0111   44.7154   31.5807 H   0  0  0  0  0  0  0  0  0  0  0  0
   10.3458   47.1860   30.4101 H   0  0  0  0  0  0  0  0  0  0  0  0
    5.4724   46.2750   30.5159 H   0  0  0  0  0  0  0  0  0  0  0  0
    8.7946   48.7672   29.3409 H   0  0  0  0  0  0  0  0  0  0  0  0
    4.4810   49.4414   28.4479 H   0  0  0  0  0  0  0  0  0  0  0  0
    4.2942   48.1101   31.2045 H   0  0  0  0  0  0  0  0  0  0  0  0
    4.6122   49.8462   30.8746 H   0  0  0  0  0  0  0  0  0  0  0  0
    3.0539   49.1227   30.3602 H   0  0  0  0  0  0  0  0  0  0  0  0
    2.6923   46.8451   29.8904 H   0  0  0  0  0  0  0  0  0  0  0  0
    4.8583   45.2969   25.6773 H   0  0  0  0  0  0  0  0  0  0  0  0
    2.0413   42.4602   28.2549 H   0  0  0  0  0  0  0  0  0  0  0  0
    0.8123   43.3844   27.2668 H   0  0  0  0  0  0  0  0  0  0  0  0
   11.3777   41.5549   31.4744 H   0  0  0  0  0  0  0  0  0  0  0  0
    9.8235   40.7202   31.7653 H   0  0  0  0  0  0  0  0  0  0  0  0
   11.7311   39.5363   30.3532 H   0  0  0  0  0  0  0  0  0  0  0  0
   10.1202   38.2697   32.6410 H   0  0  0  0  0  0  0  0  0  0  0  0
   13.6850   37.4639   31.2321 H   0  0  0  0  0  0  0  0  0  0  0  0
   10.0250   38.1793   29.7654 H   0  0  0  0  0  0  0  0  0  0  0  0
   11.2757   36.3135   32.4908 H   0  0  0  0  0  0  0  0  0  0  0  0
   11.9838   36.9111   29.7708 H   0  0  0  0  0  0  0  0  0  0  0  0
   12.3306   38.3535   34.7458 H   0  0  0  0  0  0  0  0  0  0  0  0
   16.7566   34.1787   32.4623 H   0  0  0  0  0  0  0  0  0  0  0  0
   15.3535   35.7355   37.5144 H   0  0  0  0  0  0  0  0  0  0  0  0
   16.6353   34.5301   37.1419 H   0  0  0  0  0  0  0  0  0  0  0  0
  1  2  2  0
  1  3  1  0
  3  4  1  0
  4  5  1  0
  6  1  1  0
  7  6  1  0
  6  8  1  0
  8  9  1  0
  9 10  2  0
 11  9  1  0
 10 12  1  0
 13 11  2  0
 12 14  2  0
 14 13  1  0
 14 15  1  0
 15 16  1  0
 16 17  1  0
 16 18  1  0
 18 19  2  0
 20 18  1  0
 19 21  1  0
 22 20  2  0
 20 23  1  0
 21 24  1  0
 21 25  2  0
 25 22  1  0
 23 26  1  0
 23 27  2  0
 24 28  1  0
 25 29  1  0
 28 29  1  0
  4 30  2  0
  4 31  1  0
 32 31  1  0
 32 33  1  0
 33 34  1  0
 33 35  1  0
 34 36  1  0
 35 37  1  0
 35 38  1  0
 38 36  1  0
 36 39  1  0
 38 40  1  0
 41 39  1  0
 42 39  1  0
 43 41  2  0
 41 44  1  0
 45 42  2  0
 46 43  1  0
 44 47  2  0
 44 45  1  0
 48 46  2  0
 48 47  1  0
 47 49  1  0
  6 50  1  1
  7 51  1  0
  7 52  1  0
  8 53  1  0
  8 54  1  0
 10 55  1  0
 11 56  1  0
 12 57  1  0
 13 58  1  0
 16 59  1  6
 17 60  1  0
 17 61  1  0
 17 62  1  0
 19 63  1  0
 22 64  1  0
 28 65  1  0
 28 66  1  0
 32 67  1  0
 32 68  1  0
 33 69  1  0
 35 70  1  0
 36 71  1  0
 37 72  1  0
 38 73  1  0
 40 74  1  0
 42 75  1  0
 46 76  1  0
 49 77  1  0
 49 78  1  0
M  CHG  3   5  -1  23   1  26  -1
M  END
>  <EmbedRMS>  (58) 
0.0808083158276

$$$$

     RDKit          3D

 78 83  0  0  0  0  0  0  0  0999 V2000
   10.2831   43.7665   33.8256 C   0  0  0  0  0  0  0  0  0  0  0  0
   11.4099   43.5935   34.3751 O   0  0  0  0  0  0  0  0  0  0  0  0
    9.3638   42.7255   33.7347 O   0  0  0  0  0  0  0  0  0  0  0  0
    9.8906   41.2267   34.2938 P   0  0  0  0  0  0  0  0  0  0  0  0
   10.3733   41.4560   35.8834 O   0  0  0  0  0  0  0  0  0  0  0  0
    9.9538   45.0699   33.2035 C   0  0  1  0  0  0  0  0  0  0  0  0
   11.0260   46.0330   33.4760 N   0  0  0  0  0  0  0  0  0  0  0  0
    9.7466   44.8486   31.6875 C   0  0  0  0  0  0  0  0  0  0  0  0
    8.7922   45.8409   31.0839 C   0  0  0  0  0  0  0  0  0  0  0  0
    7.4045   45.5995   31.0975 C   0  0  0  0  0  0  0  0  0  0  0  0
    9.2828   46.9877   30.4389 C   0  0  0  0  0  0  0  0  0  0  0  0
    6.5253   46.5008   30.4821 C   0  0  0  0  0  0  0  0  0  0  0  0
    8.4017   47.8883   29.8282 C   0  0  0  0  0  0  0  0  0  0  0  0
    7.0206   47.6551   29.8585 C   0  0  0  0  0  0  0  0  0  0  0  0
    6.1428   48.5525   29.2457 O   0  0  0  0  0  0  0  0  0  0  0  0
    5.4970   49.6313   29.9299 C   0  0  2  0  0  0  0  0  0  0  0  0
    6.4694   50.7843   30.1999 C   0  0  0  0  0  0  0  0  0  0  0  0
    4.7046   49.1411   31.1416 C   0  0  0  0  0  0  0  0  0  0  0  0
    3.3505   48.7837   30.9211 C   0  0  0  0  0  0  0  0  0  0  0  0
    5.2676   48.9319   32.4483 C   0  0  0  0  0  0  0  0  0  0  0  0
    2.6167   48.2535   31.9743 C   0  0  0  0  0  0  0  0  0  0  0  0
    4.4746   48.3856   33.4799 C   0  0  0  0  0  0  0  0  0  0  0  0
    6.6184   49.2766   32.7586 N   0  0  0  0  0  0  0  0  0  0  0  0
    1.2982   47.8406   31.9802 O   0  0  0  0  0  0  0  0  0  0  0  0
    3.1554   48.0619   33.1993 C   0  0  0  0  0  0  0  0  0  0  0  0
    6.8825   50.5375   33.2398 O   0  0  0  0  0  0  0  0  0  0  0  0
    7.4434   48.3668   32.9781 O   0  0  0  0  0  0  0  0  0  0  0  0
    0.9908   47.3611   33.2965 C   0  0  0  0  0  0  0  0  0  0  0  0
    2.2049   47.5204   34.0431 O   0  0  0  0  0  0  0  0  0  0  0  0
    8.8126   40.1848   34.2122 O   0  0  0  0  0  0  0  0  0  0  0  0
   11.2417   40.7944   33.3694 O   0  0  0  0  0  0  0  0  0  0  0  0
   10.9179   40.6904   31.9970 C   0  0  0  0  0  0  0  0  0  0  0  0
   11.5181   39.3814   31.4408 C   0  0  0  0  0  0  0  0  0  0  0  0
   12.7497   39.0870   32.0746 O   0  0  0  0  0  0  0  0  0  0  0  0
   10.6045   38.1892   31.6655 C   0  0  0  0  0  0  0  0  0  0  0  0
   12.9344   37.6801   32.0290 C   0  0  0  0  0  0  0  0  0  0  0  0
    9.6418   38.0758   30.6441 O   0  0  0  0  0  0  0  0  0  0  0  0
   11.5741   37.0170   31.7045 C   0  0  0  0  0  0  0  0  0  0  0  0
   13.4851   37.2126   33.3241 N   0  0  0  0  0  0  0  0  0  0  0  0
   11.6079   36.3407   30.4680 O   0  0  0  0  0  0  0  0  0  0  0  0
   14.4801   36.3321   33.5727 C   0  0  0  0  0  0  0  0  0  0  0  0
   13.1140   37.6278   34.5693 C   0  0  0  0  0  0  0  0  0  0  0  0
   15.2073   35.6155   32.6739 N   0  0  0  0  0  0  0  0  0  0  0  0
   14.6758   36.2306   34.9182 C   0  0  0  0  0  0  0  0  0  0  0  0
   13.8217   37.0451   35.5785 N   0  0  0  0  0  0  0  0  0  0  0  0
   16.1639   34.7602   33.1546 C   0  0  0  0  0  0  0  0  0  0  0  0
   15.6526   35.3506   35.4130 C   0  0  0  0  0  0  0  0  0  0  0  0
   16.3794   34.6316   34.5041 N   0  0  0  0  0  0  0  0  0  0  0  0
   15.9000   35.1932   36.8089 N   0  0  0  0  0  0  0  0  0  0  0  0
    9.0108   45.4319   33.6708 H   0  0  0  0  0  0  0  0  0  0  0  0
   10.7235   46.9697   33.1226 H   0  0  0  0  0  0  0  0  0  0  0  0
   11.8893   45.7678   32.9468 H   0  0  0  0  0  0  0  0  0  0  0  0
    9.3419   43.8333   31.4759 H   0  0  0  0  0  0  0  0  0  0  0  0
   10.7232   44.8824   31.1560 H   0  0  0  0  0  0  0  0  0  0  0  0
    7.0076   44.7140   31.5783 H   0  0  0  0  0  0  0  0  0  0  0  0
   10.3473   47.1840   30.4044 H   0  0  0  0  0  0  0  0  0  0  0  0
    5.4605   46.3059   30.4958 H   0  0  0  0  0  0  0  0  0  0  0  0
    8.7923   48.7669   29.3312 H   0  0  0  0  0  0  0  0  0  0  0  0
    4.7645   50.0552   29.2076 H   0  0  0  0  0  0  0  0  0  0  0  0
    5.9888   51.5543   30.8400 H   0  0  0  0  0  0  0  0  0  0  0  0
    6.7519   51.2617   29.2374 H   0  0  0  0  0  0  0  0  0  0  0  0
    7.4061   50.4296   30.6716 H   0  0  0  0  0  0  0  0  0  0  0  0
    2.8843   48.8984   29.9506 H   0  0  0  0  0  0  0  0  0  0  0  0
    4.8794   48.2231   34.4707 H   0  0  0  0  0  0  0  0  0  0  0  0
    0.1805   47.9711   33.7479 H   0  0  0  0  0  0  0  0  0  0  0  0
    0.7028   46.2897   33.2573 H   0  0  0  0  0  0  0  0  0  0  0  0
    9.8290   40.7386   31.7617 H   0  0  0  0  0  0  0  0  0  0  0  0
   11.3945   41.5459   31.4722 H   0  0  0  0  0  0  0  0  0  0  0  0
   11.6994   39.5069   30.3484 H   0  0  0  0  0  0  0  0  0  0  0  0
   10.1090   38.2635   32.6632 H   0  0  0  0  0  0  0  0  0  0  0  0
   13.6662   37.4515   31.2224 H   0  0  0  0  0  0  0  0  0  0  0  0
    8.9009   38.6925   30.8793 H   0  0  0  0  0  0  0  0  0  0  0  0
   11.2650   36.3083   32.5087 H   0  0  0  0  0  0  0  0  0  0  0  0
   12.1372   35.5141   30.6163 H   0  0  0  0  0  0  0  0  0  0  0  0
   12.3297   38.3530   34.7450 H   0  0  0  0  0  0  0  0  0  0  0  0
   16.7558   34.1781   32.4619 H   0  0  0  0  0  0  0  0  0  0  0  0
   16.6346   34.5300   37.1414 H   0  0  0  0  0  0  0  0  0  0  0  0
   15.3533   35.7360   37.5138 H   0  0  0  0  0  0  0  0  0  0  0  0
  1  2  2  0
  1  3  1  0
  3  4  1  0
  4  5  1  0
  6  1  1  0
  7  6  1  0
  6  8  1  0
  8  9  1  0
  9 10  2  0
 11  9  1  0
 10 12  1  0
 13 11  2  0
 12 14  2  0
 14 13  1  0
 14 15  1  0
 15 16  1  0
 16 17  1  0
 16 18  1  0
 18 19  2  0
 20 18  1  0
 19 21  1  0
 22 20  2  0
 20 23  1  0
 21 24  1  0
 21 25  2  0
 25 22  1  0
 23 26  1  0
 23 27  2  0
 24 28  1  0
 25 29  1  0
 28 29  1  0
  4 30  2  0
  4 31  1  0
 32 31  1  0
 32 33  1  0
 33 34  1  0
 33 35  1  0
 34 36  1  0
 35 37  1  0
 35 38  1  0
 38 36  1  0
 36 39  1  0
 38 40  1  0
 41 39  1  0
 42 39  1  0
 43 41  2  0
 41 44  1  0
 45 42  2  0
 46 43  1  0
 44 47  2  0
 44 45  1  0
 48 46  2  0
 48 47  1  0
 47 49  1  0
  6 50  1  1
  7 51  1  0
  7 52  1  0
  8 53  1  0
  8 54  1  0
 10 55  1  0
 11 56  1  0
 12 57  1  0
 13 58  1  0
 16 59  1  6
 17 60  1  0
 17 61  1  0
 17 62  1  0
 19 63  1  0
 22 64  1  0
 28 65  1  0
 28 66  1  0
 32 67  1  0
 32 68  1  0
 33 69  1  0
 35 70  1  0
 36 71  1  0
 37 72  1  0
 38 73  1  0
 40 74  1  0
 42 75  1  0
 46 76  1  0
 49 77  1  0
 49 78  1  0
M  CHG  3   5  -1  23   1  26  -1
M  END
>  <EmbedRMS>  (59) 
0.082968511683

$$$$

     RDKit          3D

 78 83  0  0  0  0  0  0  0  0999 V2000
   10.2803   43.7665   33.8250 C   0  0  0  0  0  0  0  0  0  0  0  0
   11.4110   43.5920   34.3667 O   0  0  0  0  0  0  0  0  0  0  0  0
    9.3619   42.7249   33.7345 O   0  0  0  0  0  0  0  0  0  0  0  0
    9.8900   41.2267   34.2940 P   0  0  0  0  0  0  0  0  0  0  0  0
   10.3735   41.4567   35.8833 O   0  0  0  0  0  0  0  0  0  0  0  0
    9.9458   45.0735   33.2109 C   0  0  1  0  0  0  0  0  0  0  0  0
   11.0264   46.0293   33.4705 N   0  0  0  0  0  0  0  0  0  0  0  0
    9.7539   44.8535   31.6946 C   0  0  0  0  0  0  0  0  0  0  0  0
    8.7958   45.8400   31.0835 C   0  0  0  0  0  0  0  0  0  0  0  0
    7.4091   45.6006   31.1010 C   0  0  0  0  0  0  0  0  0  0  0  0
    9.2826   46.9876   30.4408 C   0  0  0  0  0  0  0  0  0  0  0  0
    6.5288   46.5024   30.4875 C   0  0  0  0  0  0  0  0  0  0  0  0
    8.4022   47.8895   29.8324 C   0  0  0  0  0  0  0  0  0  0  0  0
    7.0130   47.6504   29.8445 C   0  0  0  0  0  0  0  0  0  0  0  0
    6.0745   48.5202   29.2548 O   0  0  0  0  0  0  0  0  0  0  0  0
    6.3294   49.5824   28.3203 C   0  0  2  0  0  0  0  0  0  0  0  0
    7.1407   49.0583   27.1174 C   0  0  0  0  0  0  0  0  0  0  0  0
    6.9360   50.8288   28.9711 C   0  0  0  0  0  0  0  0  0  0  0  0
    7.1758   50.8580   30.3714 C   0  0  0  0  0  0  0  0  0  0  0  0
    7.2605   51.9957   28.1961 C   0  0  0  0  0  0  0  0  0  0  0  0
    7.7981   51.9705   30.9213 C   0  0  0  0  0  0  0  0  0  0  0  0
    7.9089   53.0919   28.8093 C   0  0  0  0  0  0  0  0  0  0  0  0
    6.9040   52.1028   26.8103 N   0  0  0  0  0  0  0  0  0  0  0  0
    8.1454   52.1951   32.2397 O   0  0  0  0  0  0  0  0  0  0  0  0
    8.1587   53.0354   30.1720 C   0  0  0  0  0  0  0  0  0  0  0  0
    5.6092   51.8610   26.4139 O   0  0  0  0  0  0  0  0  0  0  0  0
    7.6907   52.6410   26.0042 O   0  0  0  0  0  0  0  0  0  0  0  0
    8.7674   53.4847   32.3198 C   0  0  0  0  0  0  0  0  0  0  0  0
    8.7542   53.9874   30.9769 O   0  0  0  0  0  0  0  0  0  0  0  0
    8.8124   40.1844   34.2133 O   0  0  0  0  0  0  0  0  0  0  0  0
   11.2405   40.7943   33.3692 O   0  0  0  0  0  0  0  0  0  0  0  0
   10.9150   40.6905   31.9972 C   0  0  0  0  0  0  0  0  0  0  0  0
   11.5252   39.3886   31.4375 C   0  0  0  0  0  0  0  0  0  0  0  0
   12.7499   39.0874   32.0799 O   0  0  0  0  0  0  0  0  0  0  0  0
   10.6092   38.1926   31.6469 C   0  0  0  0  0  0  0  0  0  0  0  0
   12.9332   37.6793   32.0294 C   0  0  0  0  0  0  0  0  0  0  0  0
    9.6122   38.0894   30.6542 O   0  0  0  0  0  0  0  0  0  0  0  0
   11.5743   37.0145   31.7024 C   0  0  0  0  0  0  0  0  0  0  0  0
   13.4844   37.2108   33.3241 N   0  0  0  0  0  0  0  0  0  0  0  0
   11.6297   36.3239   30.4740 O   0  0  0  0  0  0  0  0  0  0  0  0
   14.4802   36.3313   33.5727 C   0  0  0  0  0  0  0  0  0  0  0  0
   13.1139   37.6267   34.5692 C   0  0  0  0  0  0  0  0  0  0  0  0
   15.2075   35.6149   32.6739 N   0  0  0  0  0  0  0  0  0  0  0  0
   14.6761   36.2303   34.9182 C   0  0  0  0  0  0  0  0  0  0  0  0
   13.8220   37.0447   35.5785 N   0  0  0  0  0  0  0  0  0  0  0  0
   16.1643   34.7600   33.1547 C   0  0  0  0  0  0  0  0  0  0  0  0
   15.6529   35.3505   35.4130 C   0  0  0  0  0  0  0  0  0  0  0  0
   16.3798   34.6315   34.5042 N   0  0  0  0  0  0  0  0  0  0  0  0
   15.9003   35.1932   36.8090 N   0  0  0  0  0  0  0  0  0  0  0  0
    8.9993   45.4381   33.6717 H   0  0  0  0  0  0  0  0  0  0  0  0
   10.7758   46.9370   33.0158 H   0  0  0  0  0  0  0  0  0  0  0  0
   11.0502   46.2276   34.4979 H   0  0  0  0  0  0  0  0  0  0  0  0
    9.3643   43.8347   31.4713 H   0  0  0  0  0  0  0  0  0  0  0  0
   10.7411   44.9068   31.1834 H   0  0  0  0  0  0  0  0  0  0  0  0
    7.0132   44.7171   31.5864 H   0  0  0  0  0  0  0  0  0  0  0  0
   10.3462   47.1910   30.4155 H   0  0  0  0  0  0  0  0  0  0  0  0
    5.4644   46.3062   30.5101 H   0  0  0  0  0  0  0  0  0  0  0  0
    8.8152   48.7790   29.3838 H   0  0  0  0  0  0  0  0  0  0  0  0
    5.3325   49.8795   27.9341 H   0  0  0  0  0  0  0  0  0  0  0  0
    6.8446   49.5778   26.1841 H   0  0  0  0  0  0  0  0  0  0  0  0
    6.9417   47.9769   26.9604 H   0  0  0  0  0  0  0  0  0  0  0  0
    8.2306   49.2055   27.2579 H   0  0  0  0  0  0  0  0  0  0  0  0
    6.8959   50.0462   31.0263 H   0  0  0  0  0  0  0  0  0  0  0  0
    8.1745   53.9769   28.2453 H   0  0  0  0  0  0  0  0  0  0  0  0
    8.1815   54.1530   32.9850 H   0  0  0  0  0  0  0  0  0  0  0  0
    9.8123   53.3854   32.6816 H   0  0  0  0  0  0  0  0  0  0  0  0
    9.8241   40.7215   31.7641 H   0  0  0  0  0  0  0  0  0  0  0  0
   11.3800   41.5528   31.4730 H   0  0  0  0  0  0  0  0  0  0  0  0
   11.7266   39.5310   30.3513 H   0  0  0  0  0  0  0  0  0  0  0  0
   10.1110   38.2747   32.6387 H   0  0  0  0  0  0  0  0  0  0  0  0
   13.6652   37.4520   31.2226 H   0  0  0  0  0  0  0  0  0  0  0  0
   10.0511   38.1143   29.7645 H   0  0  0  0  0  0  0  0  0  0  0  0
   11.2762   36.3141   32.5189 H   0  0  0  0  0  0  0  0  0  0  0  0
   10.8593   35.6978   30.4640 H   0  0  0  0  0  0  0  0  0  0  0  0
   12.3295   38.3518   34.7450 H   0  0  0  0  0  0  0  0  0  0  0  0
   16.7564   34.1780   32.4620 H   0  0  0  0  0  0  0  0  0  0  0  0
   16.6349   34.5300   37.1416 H   0  0  0  0  0  0  0  0  0  0  0  0
   15.3534   35.7359   37.5138 H   0  0  0  0  0  0  0  0  0  0  0  0
  1  2  2  0
  1  3  1  0
  3  4  1  0
  4  5  1  0
  6  1  1  0
  7  6  1  0
  6  8  1  0
  8  9  1  0
  9 10  2  0
 11  9  1  0
 10 12  1  0
 13 11  2  0
 12 14  2  0
 14 13  1  0
 14 15  1  0
 15 16  1  0
 16 17  1  0
 16 18  1  0
 18 19  2  0
 20 18  1  0
 19 21  1  0
 22 20  2  0
 20 23  1  0
 21 24  1  0
 21 25  2  0
 25 22  1  0
 23 26  1  0
 23 27  2  0
 24 28  1  0
 25 29  1  0
 28 29  1  0
  4 30  2  0
  4 31  1  0
 32 31  1  0
 32 33  1  0
 33 34  1  0
 33 35  1  0
 34 36  1  0
 35 37  1  0
 35 38  1  0
 38 36  1  0
 36 39  1  0
 38 40  1  0
 41 39  1  0
 42 39  1  0
 43 41  2  0
 41 44  1  0
 45 42  2  0
 46 43  1  0
 44 47  2  0
 44 45  1  0
 48 46  2  0
 48 47  1  0
 47 49  1  0
  6 50  1  1
  7 51  1  0
  7 52  1  0
  8 53  1  0
  8 54  1  0
 10 55  1  0
 11 56  1  0
 12 57  1  0
 13 58  1  0
 16 59  1  6
 17 60  1  0
 17 61  1  0
 17 62  1  0
 19 63  1  0
 22 64  1  0
 28 65  1  0
 28 66  1  0
 32 67  1  0
 32 68  1  0
 33 69  1  0
 35 70  1  0
 36 71  1  0
 37 72  1  0
 38 73  1  0
 40 74  1  0
 42 75  1  0
 46 76  1  0
 49 77  1  0
 49 78  1  0
M  CHG  3   5  -1  23   1  26  -1
M  END
>  <EmbedRMS>  (60) 
0.0816614299433

$$$$

     RDKit          3D

 78 83  0  0  0  0  0  0  0  0999 V2000
   10.2838   43.7626   33.8276 C   0  0  0  0  0  0  0  0  0  0  0  0
   11.4103   43.5862   34.3766 O   0  0  0  0  0  0  0  0  0  0  0  0
    9.3630   42.7236   33.7353 O   0  0  0  0  0  0  0  0  0  0  0  0
    9.8896   41.2248   34.2935 P   0  0  0  0  0  0  0  0  0  0  0  0
   10.3735   41.4542   35.8829 O   0  0  0  0  0  0  0  0  0  0  0  0
    9.9549   45.0700   33.2064 C   0  0  1  0  0  0  0  0  0  0  0  0
   11.0199   46.0481   33.4572 N   0  0  0  0  0  0  0  0  0  0  0  0
    9.7507   44.8511   31.6923 C   0  0  0  0  0  0  0  0  0  0  0  0
    8.7947   45.8420   31.0872 C   0  0  0  0  0  0  0  0  0  0  0  0
    7.4084   45.6009   31.1002 C   0  0  0  0  0  0  0  0  0  0  0  0
    9.2825   46.9889   30.4450 C   0  0  0  0  0  0  0  0  0  0  0  0
    6.5262   46.4999   30.4851 C   0  0  0  0  0  0  0  0  0  0  0  0
    8.4005   47.8870   29.8335 C   0  0  0  0  0  0  0  0  0  0  0  0
    7.0180   47.6566   29.8449 C   0  0  0  0  0  0  0  0  0  0  0  0
    6.1940   48.5975   29.2001 O   0  0  0  0  0  0  0  0  0  0  0  0
    4.7631   48.5899   29.1048 C   0  0  2  0  0  0  0  0  0  0  0  0
    4.1424   48.9229   30.4710 C   0  0  0  0  0  0  0  0  0  0  0  0
    4.2501   47.3269   28.4108 C   0  0  0  0  0  0  0  0  0  0  0  0
    3.1952   46.5602   28.9777 C   0  0  0  0  0  0  0  0  0  0  0  0
    4.8464   46.8778   27.1820 C   0  0  0  0  0  0  0  0  0  0  0  0
    2.8096   45.3858   28.3459 C   0  0  0  0  0  0  0  0  0  0  0  0
    4.4187   45.6647   26.5950 C   0  0  0  0  0  0  0  0  0  0  0  0
    5.8839   47.6279   26.5274 N   0  0  0  0  0  0  0  0  0  0  0  0
    1.8290   44.4896   28.7263 O   0  0  0  0  0  0  0  0  0  0  0  0
    3.3982   44.9546   27.2087 C   0  0  0  0  0  0  0  0  0  0  0  0
    5.7629   48.9878   26.3610 O   0  0  0  0  0  0  0  0  0  0  0  0
    6.8098   47.0308   25.9402 O   0  0  0  0  0  0  0  0  0  0  0  0
    1.8024   43.4275   27.7631 C   0  0  0  0  0  0  0  0  0  0  0  0
    2.8203   43.7643   26.8109 O   0  0  0  0  0  0  0  0  0  0  0  0
    8.8113   40.1834   34.2126 O   0  0  0  0  0  0  0  0  0  0  0  0
   11.2398   40.7937   33.3670 O   0  0  0  0  0  0  0  0  0  0  0  0
   10.9125   40.6857   31.9954 C   0  0  0  0  0  0  0  0  0  0  0  0
   11.5175   39.3786   31.4405 C   0  0  0  0  0  0  0  0  0  0  0  0
   12.7490   39.0863   32.0751 O   0  0  0  0  0  0  0  0  0  0  0  0
   10.6061   38.1867   31.6656 C   0  0  0  0  0  0  0  0  0  0  0  0
   12.9355   37.6796   32.0292 C   0  0  0  0  0  0  0  0  0  0  0  0
    9.6399   38.0902   30.6471 O   0  0  0  0  0  0  0  0  0  0  0  0
   11.5765   37.0145   31.7043 C   0  0  0  0  0  0  0  0  0  0  0  0
   13.4858   37.2125   33.3243 N   0  0  0  0  0  0  0  0  0  0  0  0
   11.6101   36.3396   30.4673 O   0  0  0  0  0  0  0  0  0  0  0  0
   14.4805   36.3319   33.5729 C   0  0  0  0  0  0  0  0  0  0  0  0
   13.1143   37.6277   34.5694 C   0  0  0  0  0  0  0  0  0  0  0  0
   15.2076   35.6153   32.6741 N   0  0  0  0  0  0  0  0  0  0  0  0
   14.6760   36.2304   34.9184 C   0  0  0  0  0  0  0  0  0  0  0  0
   13.8219   37.0449   35.5786 N   0  0  0  0  0  0  0  0  0  0  0  0
   16.1641   34.7600   33.1548 C   0  0  0  0  0  0  0  0  0  0  0  0
   15.6528   35.3505   35.4132 C   0  0  0  0  0  0  0  0  0  0  0  0
   16.3795   34.6314   34.5043 N   0  0  0  0  0  0  0  0  0  0  0  0
   15.9002   35.1932   36.8091 N   0  0  0  0  0  0  0  0  0  0  0  0
    9.0099   45.4348   33.6670 H   0  0  0  0  0  0  0  0  0  0  0  0
   11.9350   45.6933   33.0929 H   0  0  0  0  0  0  0  0  0  0  0  0
   11.1132   46.1992   34.4885 H   0  0  0  0  0  0  0  0  0  0  0  0
    9.3518   43.8345   31.4759 H   0  0  0  0  0  0  0  0  0  0  0  0
   10.7310   44.8931   31.1677 H   0  0  0  0  0  0  0  0  0  0  0  0
    7.0135   44.7145   31.5814 H   0  0  0  0  0  0  0  0  0  0  0  0
   10.3465   47.1890   30.4146 H   0  0  0  0  0  0  0  0  0  0  0  0
    5.4739   46.2728   30.5152 H   0  0  0  0  0  0  0  0  0  0  0  0
    8.7947   48.7674   29.3419 H   0  0  0  0  0  0  0  0  0  0  0  0
    4.4808   49.4402   28.4493 H   0  0  0  0  0  0  0  0  0  0  0  0
    3.0547   49.1204   30.3621 H   0  0  0  0  0  0  0  0  0  0  0  0
    4.2953   48.1072   31.2052 H   0  0  0  0  0  0  0  0  0  0  0  0
    4.6133   49.8435   30.8763 H   0  0  0  0  0  0  0  0  0  0  0  0
    2.6931   46.8430   29.8912 H   0  0  0  0  0  0  0  0  0  0  0  0
    4.8566   45.2981   25.6755 H   0  0  0  0  0  0  0  0  0  0  0  0
    2.0402   42.4596   28.2520 H   0  0  0  0  0  0  0  0  0  0  0  0
    0.8110   43.3851   27.2654 H   0  0  0  0  0  0  0  0  0  0  0  0
    9.8215   40.7200   31.7634 H   0  0  0  0  0  0  0  0  0  0  0  0
   11.3806   41.5436   31.4669 H   0  0  0  0  0  0  0  0  0  0  0  0
   11.6998   39.5041   30.3481 H   0  0  0  0  0  0  0  0  0  0  0  0
   10.1086   38.2766   32.6603 H   0  0  0  0  0  0  0  0  0  0  0  0
   13.6679   37.4519   31.2229 H   0  0  0  0  0  0  0  0  0  0  0  0
    9.0016   37.3867   30.9349 H   0  0  0  0  0  0  0  0  0  0  0  0
   11.2666   36.3061   32.5083 H   0  0  0  0  0  0  0  0  0  0  0  0
   12.1389   35.5126   30.6150 H   0  0  0  0  0  0  0  0  0  0  0  0
   12.3300   38.3529   34.7449 H   0  0  0  0  0  0  0  0  0  0  0  0
   16.7560   34.1779   32.4621 H   0  0  0  0  0  0  0  0  0  0  0  0
   16.6347   34.5299   37.1416 H   0  0  0  0  0  0  0  0  0  0  0  0
   15.3534   35.7359   37.5140 H   0  0  0  0  0  0  0  0  0  0  0  0
  1  2  2  0
  1  3  1  0
  3  4  1  0
  4  5  1  0
  6  1  1  0
  7  6  1  0
  6  8  1  0
  8  9  1  0
  9 10  2  0
 11  9  1  0
 10 12  1  0
 13 11  2  0
 12 14  2  0
 14 13  1  0
 14 15  1  0
 15 16  1  0
 16 17  1  0
 16 18  1  0
 18 19  2  0
 20 18  1  0
 19 21  1  0
 22 20  2  0
 20 23  1  0
 21 24  1  0
 21 25  2  0
 25 22  1  0
 23 26  1  0
 23 27  2  0
 24 28  1  0
 25 29  1  0
 28 29  1  0
  4 30  2  0
  4 31  1  0
 32 31  1  0
 32 33  1  0
 33 34  1  0
 33 35  1  0
 34 36  1  0
 35 37  1  0
 35 38  1  0
 38 36  1  0
 36 39  1  0
 38 40  1  0
 41 39  1  0
 42 39  1  0
 43 41  2  0
 41 44  1  0
 45 42  2  0
 46 43  1  0
 44 47  2  0
 44 45  1  0
 48 46  2  0
 48 47  1  0
 47 49  1  0
  6 50  1  1
  7 51  1  0
  7 52  1  0
  8 53  1  0
  8 54  1  0
 10 55  1  0
 11 56  1  0
 12 57  1  0
 13 58  1  0
 16 59  1  6
 17 60  1  0
 17 61  1  0
 17 62  1  0
 19 63  1  0
 22 64  1  0
 28 65  1  0
 28 66  1  0
 32 67  1  0
 32 68  1  0
 33 69  1  0
 35 70  1  0
 36 71  1  0
 37 72  1  0
 38 73  1  0
 40 74  1  0
 42 75  1  0
 46 76  1  0
 49 77  1  0
 49 78  1  0
M  CHG  3   5  -1  23   1  26  -1
M  END
>  <EmbedRMS>  (61) 
0.0832652916752

$$$$

     RDKit          3D

 78 83  0  0  0  0  0  0  0  0999 V2000
   10.2805   43.7663   33.8250 C   0  0  0  0  0  0  0  0  0  0  0  0
   11.4112   43.5917   34.3667 O   0  0  0  0  0  0  0  0  0  0  0  0
    9.3620   42.7249   33.7344 O   0  0  0  0  0  0  0  0  0  0  0  0
    9.8899   41.2266   34.2940 P   0  0  0  0  0  0  0  0  0  0  0  0
   10.3734   41.4566   35.8833 O   0  0  0  0  0  0  0  0  0  0  0  0
    9.9461   45.0736   33.2114 C   0  0  1  0  0  0  0  0  0  0  0  0
   11.0268   46.0292   33.4711 N   0  0  0  0  0  0  0  0  0  0  0  0
    9.7539   44.8544   31.6952 C   0  0  0  0  0  0  0  0  0  0  0  0
    8.7957   45.8419   31.0861 C   0  0  0  0  0  0  0  0  0  0  0  0
    7.4094   45.5998   31.1002 C   0  0  0  0  0  0  0  0  0  0  0  0
    9.2822   46.9874   30.4394 C   0  0  0  0  0  0  0  0  0  0  0  0
    6.5267   46.4980   30.4848 C   0  0  0  0  0  0  0  0  0  0  0  0
    8.3995   47.8855   29.8291 C   0  0  0  0  0  0  0  0  0  0  0  0
    7.0170   47.6575   29.8488 C   0  0  0  0  0  0  0  0  0  0  0  0
    6.1850   48.5982   29.2100 O   0  0  0  0  0  0  0  0  0  0  0  0
    4.7601   48.7390   29.3383 C   0  0  2  0  0  0  0  0  0  0  0  0
    4.3589   48.8408   30.8243 C   0  0  0  0  0  0  0  0  0  0  0  0
    3.9742   47.6762   28.5651 C   0  0  0  0  0  0  0  0  0  0  0  0
    4.6617   46.6810   27.8194 C   0  0  0  0  0  0  0  0  0  0  0  0
    2.5356   47.6643   28.5596 C   0  0  0  0  0  0  0  0  0  0  0  0
    3.9250   45.6835   27.1954 C   0  0  0  0  0  0  0  0  0  0  0  0
    1.8415   46.6119   27.9221 C   0  0  0  0  0  0  0  0  0  0  0  0
    1.7669   48.7193   29.1551 N   0  0  0  0  0  0  0  0  0  0  0  0
    4.3861   44.6160   26.4490 O   0  0  0  0  0  0  0  0  0  0  0  0
    2.5757   45.6441   27.2535 C   0  0  0  0  0  0  0  0  0  0  0  0
    0.5955   48.4225   29.8128 O   0  0  0  0  0  0  0  0  0  0  0  0
    2.0123   49.9092   28.8695 O   0  0  0  0  0  0  0  0  0  0  0  0
    3.2500   43.8567   26.0141 C   0  0  0  0  0  0  0  0  0  0  0  0
    2.1138   44.5491   26.5489 O   0  0  0  0  0  0  0  0  0  0  0  0
    8.8123   40.1844   34.2133 O   0  0  0  0  0  0  0  0  0  0  0  0
   11.2405   40.7942   33.3692 O   0  0  0  0  0  0  0  0  0  0  0  0
   10.9150   40.6905   31.9972 C   0  0  0  0  0  0  0  0  0  0  0  0
   11.5252   39.3886   31.4375 C   0  0  0  0  0  0  0  0  0  0  0  0
   12.7499   39.0874   32.0799 O   0  0  0  0  0  0  0  0  0  0  0  0
   10.6092   38.1926   31.6469 C   0  0  0  0  0  0  0  0  0  0  0  0
   12.9332   37.6793   32.0294 C   0  0  0  0  0  0  0  0  0  0  0  0
    9.6121   38.0894   30.6542 O   0  0  0  0  0  0  0  0  0  0  0  0
   11.5743   37.0145   31.7024 C   0  0  0  0  0  0  0  0  0  0  0  0
   13.4844   37.2108   33.3241 N   0  0  0  0  0  0  0  0  0  0  0  0
   11.6297   36.3239   30.4740 O   0  0  0  0  0  0  0  0  0  0  0  0
   14.4802   36.3313   33.5727 C   0  0  0  0  0  0  0  0  0  0  0  0
   13.1138   37.6266   34.5693 C   0  0  0  0  0  0  0  0  0  0  0  0
   15.2075   35.6149   32.6739 N   0  0  0  0  0  0  0  0  0  0  0  0
   14.6761   36.2303   34.9182 C   0  0  0  0  0  0  0  0  0  0  0  0
   13.8220   37.0447   35.5785 N   0  0  0  0  0  0  0  0  0  0  0  0
   16.1643   34.7600   33.1547 C   0  0  0  0  0  0  0  0  0  0  0  0
   15.6529   35.3505   35.4130 C   0  0  0  0  0  0  0  0  0  0  0  0
   16.3798   34.6315   34.5042 N   0  0  0  0  0  0  0  0  0  0  0  0
   15.9003   35.1932   36.8090 N   0  0  0  0  0  0  0  0  0  0  0  0
    8.9997   45.4381   33.6726 H   0  0  0  0  0  0  0  0  0  0  0  0
   10.7766   46.9369   33.0162 H   0  0  0  0  0  0  0  0  0  0  0  0
   11.0505   46.2276   34.4985 H   0  0  0  0  0  0  0  0  0  0  0  0
    9.3643   43.8358   31.4712 H   0  0  0  0  0  0  0  0  0  0  0  0
   10.7410   44.9082   31.1837 H   0  0  0  0  0  0  0  0  0  0  0  0
    7.0160   44.7102   31.5766 H   0  0  0  0  0  0  0  0  0  0  0  0
   10.3462   47.1867   30.4037 H   0  0  0  0  0  0  0  0  0  0  0  0
    5.4749   46.2593   30.4855 H   0  0  0  0  0  0  0  0  0  0  0  0
    8.7924   48.7657   29.3363 H   0  0  0  0  0  0  0  0  0  0  0  0
    4.5187   49.7157   28.8697 H   0  0  0  0  0  0  0  0  0  0  0  0
    3.4888   49.5150   30.9544 H   0  0  0  0  0  0  0  0  0  0  0  0
    5.1916   49.2722   31.4193 H   0  0  0  0  0  0  0  0  0  0  0  0
    4.0894   47.8525   31.2485 H   0  0  0  0  0  0  0  0  0  0  0  0
    5.7371   46.6670   27.7214 H   0  0  0  0  0  0  0  0  0  0  0  0
    0.7598   46.5729   27.9153 H   0  0  0  0  0  0  0  0  0  0  0  0
    3.2978   42.8256   26.4228 H   0  0  0  0  0  0  0  0  0  0  0  0
    3.2012   43.8396   24.9051 H   0  0  0  0  0  0  0  0  0  0  0  0
   11.3801   41.5528   31.4731 H   0  0  0  0  0  0  0  0  0  0  0  0
    9.8241   40.7215   31.7641 H   0  0  0  0  0  0  0  0  0  0  0  0
   11.7266   39.5310   30.3512 H   0  0  0  0  0  0  0  0  0  0  0  0
   10.1110   38.2747   32.6387 H   0  0  0  0  0  0  0  0  0  0  0  0
   13.6652   37.4520   31.2226 H   0  0  0  0  0  0  0  0  0  0  0  0
   10.0511   38.1143   29.7645 H   0  0  0  0  0  0  0  0  0  0  0  0
   11.2762   36.3141   32.5189 H   0  0  0  0  0  0  0  0  0  0  0  0
   10.8593   35.6978   30.4640 H   0  0  0  0  0  0  0  0  0  0  0  0
   12.3294   38.3518   34.7450 H   0  0  0  0  0  0  0  0  0  0  0  0
   16.7564   34.1780   32.4620 H   0  0  0  0  0  0  0  0  0  0  0  0
   15.3534   35.7359   37.5138 H   0  0  0  0  0  0  0  0  0  0  0  0
   16.6349   34.5300   37.1415 H   0  0  0  0  0  0  0  0  0  0  0  0
  1  2  2  0
  1  3  1  0
  3  4  1  0
  4  5  1  0
  6  1  1  0
  7  6  1  0
  6  8  1  0
  8  9  1  0
  9 10  2  0
 11  9  1  0
 10 12  1  0
 13 11  2  0
 12 14  2  0
 14 13  1  0
 14 15  1  0
 15 16  1  0
 16 17  1  0
 16 18  1  0
 18 19  2  0
 20 18  1  0
 19 21  1  0
 22 20  2  0
 20 23  1  0
 21 24  1  0
 21 25  2  0
 25 22  1  0
 23 26  1  0
 23 27  2  0
 24 28  1  0
 25 29  1  0
 28 29  1  0
  4 30  2  0
  4 31  1  0
 32 31  1  0
 32 33  1  0
 33 34  1  0
 33 35  1  0
 34 36  1  0
 35 37  1  0
 35 38  1  0
 38 36  1  0
 36 39  1  0
 38 40  1  0
 41 39  1  0
 42 39  1  0
 43 41  2  0
 41 44  1  0
 45 42  2  0
 46 43  1  0
 44 47  2  0
 44 45  1  0
 48 46  2  0
 48 47  1  0
 47 49  1  0
  6 50  1  1
  7 51  1  0
  7 52  1  0
  8 53  1  0
  8 54  1  0
 10 55  1  0
 11 56  1  0
 12 57  1  0
 13 58  1  0
 16 59  1  6
 17 60  1  0
 17 61  1  0
 17 62  1  0
 19 63  1  0
 22 64  1  0
 28 65  1  0
 28 66  1  0
 32 67  1  0
 32 68  1  0
 33 69  1  0
 35 70  1  0
 36 71  1  0
 37 72  1  0
 38 73  1  0
 40 74  1  0
 42 75  1  0
 46 76  1  0
 49 77  1  0
 49 78  1  0
M  CHG  3   5  -1  23   1  26  -1
M  END
>  <EmbedRMS>  (62) 
0.0816089288389

$$$$

     RDKit          3D

 78 83  0  0  0  0  0  0  0  0999 V2000
   10.2834   43.7661   33.8256 C   0  0  0  0  0  0  0  0  0  0  0  0
   11.4102   43.5930   34.3752 O   0  0  0  0  0  0  0  0  0  0  0  0
    9.3637   42.7255   33.7348 O   0  0  0  0  0  0  0  0  0  0  0  0
    9.8906   41.2265   34.2933 P   0  0  0  0  0  0  0  0  0  0  0  0
   10.3743   41.4557   35.8827 O   0  0  0  0  0  0  0  0  0  0  0  0
    9.9546   45.0694   33.2035 C   0  0  1  0  0  0  0  0  0  0  0  0
   11.0274   46.0321   33.4756 N   0  0  0  0  0  0  0  0  0  0  0  0
    9.7465   44.8481   31.6876 C   0  0  0  0  0  0  0  0  0  0  0  0
    8.7923   45.8408   31.0844 C   0  0  0  0  0  0  0  0  0  0  0  0
    7.4055   45.6018   31.0994 C   0  0  0  0  0  0  0  0  0  0  0  0
    9.2823   46.9879   30.4426 C   0  0  0  0  0  0  0  0  0  0  0  0
    6.5267   46.5035   30.4845 C   0  0  0  0  0  0  0  0  0  0  0  0
    8.4033   47.8903   29.8323 C   0  0  0  0  0  0  0  0  0  0  0  0
    7.0141   47.6519   29.8460 C   0  0  0  0  0  0  0  0  0  0  0  0
    6.0890   48.5162   29.2373 O   0  0  0  0  0  0  0  0  0  0  0  0
    6.4218   49.6848   28.4845 C   0  0  2  0  0  0  0  0  0  0  0  0
    5.1600   50.5019   28.2090 C   0  0  0  0  0  0  0  0  0  0  0  0
    7.1367   49.3493   27.1834 C   0  0  0  0  0  0  0  0  0  0  0  0
    8.1099   50.2701   26.7251 C   0  0  0  0  0  0  0  0  0  0  0  0
    6.9107   48.1406   26.4357 C   0  0  0  0  0  0  0  0  0  0  0  0
    8.8346   49.9611   25.5823 C   0  0  0  0  0  0  0  0  0  0  0  0
    7.6925   47.8747   25.2888 C   0  0  0  0  0  0  0  0  0  0  0  0
    5.9215   47.1731   26.8196 N   0  0  0  0  0  0  0  0  0  0  0  0
    9.8273   50.7006   24.9686 O   0  0  0  0  0  0  0  0  0  0  0  0
    8.6377   48.8124   24.8970 C   0  0  0  0  0  0  0  0  0  0  0  0
    6.1913   45.8311   26.6815 O   0  0  0  0  0  0  0  0  0  0  0  0
    4.7510   47.5285   27.0634 O   0  0  0  0  0  0  0  0  0  0  0  0
   10.2815   49.9667   23.8233 C   0  0  0  0  0  0  0  0  0  0  0  0
    9.4954   48.7672   23.8147 O   0  0  0  0  0  0  0  0  0  0  0  0
    8.8123   40.1850   34.2127 O   0  0  0  0  0  0  0  0  0  0  0  0
   11.2407   40.7945   33.3670 O   0  0  0  0  0  0  0  0  0  0  0  0
   10.9134   40.6866   31.9954 C   0  0  0  0  0  0  0  0  0  0  0  0
   11.5167   39.3787   31.4404 C   0  0  0  0  0  0  0  0  0  0  0  0
   12.7486   39.0849   32.0734 O   0  0  0  0  0  0  0  0  0  0  0  0
   10.6039   38.1884   31.6669 C   0  0  0  0  0  0  0  0  0  0  0  0
   12.9329   37.6776   32.0284 C   0  0  0  0  0  0  0  0  0  0  0  0
    9.6373   38.0938   30.6484 O   0  0  0  0  0  0  0  0  0  0  0  0
   11.5737   37.0141   31.7055 C   0  0  0  0  0  0  0  0  0  0  0  0
   13.4853   37.2120   33.3238 N   0  0  0  0  0  0  0  0  0  0  0  0
   11.6210   36.3379   30.4683 O   0  0  0  0  0  0  0  0  0  0  0  0
   14.4804   36.3319   33.5726 C   0  0  0  0  0  0  0  0  0  0  0  0
   13.1141   37.6275   34.5689 C   0  0  0  0  0  0  0  0  0  0  0  0
   15.2075   35.6152   32.6740 N   0  0  0  0  0  0  0  0  0  0  0  0
   14.6761   36.2306   34.9181 C   0  0  0  0  0  0  0  0  0  0  0  0
   13.8218   37.0451   35.5783 N   0  0  0  0  0  0  0  0  0  0  0  0
   16.1641   34.7600   33.1548 C   0  0  0  0  0  0  0  0  0  0  0  0
   15.6527   35.3507   35.4131 C   0  0  0  0  0  0  0  0  0  0  0  0
   16.3795   34.6315   34.5043 N   0  0  0  0  0  0  0  0  0  0  0  0
   15.9001   35.1933   36.8090 N   0  0  0  0  0  0  0  0  0  0  0  0
    9.0121   45.4317   33.6714 H   0  0  0  0  0  0  0  0  0  0  0  0
   11.8906   45.7658   32.9468 H   0  0  0  0  0  0  0  0  0  0  0  0
   10.7260   46.9687   33.1213 H   0  0  0  0  0  0  0  0  0  0  0  0
   10.7229   44.8814   31.1555 H   0  0  0  0  0  0  0  0  0  0  0  0
    9.3414   43.8329   31.4761 H   0  0  0  0  0  0  0  0  0  0  0  0
    7.0083   44.7168   31.5811 H   0  0  0  0  0  0  0  0  0  0  0  0
   10.3469   47.1850   30.4120 H   0  0  0  0  0  0  0  0  0  0  0  0
    5.4623   46.3059   30.4996 H   0  0  0  0  0  0  0  0  0  0  0  0
    8.8172   48.7646   29.3506 H   0  0  0  0  0  0  0  0  0  0  0  0
    7.0760   50.3240   29.1193 H   0  0  0  0  0  0  0  0  0  0  0  0
    4.6445   50.7294   29.1661 H   0  0  0  0  0  0  0  0  0  0  0  0
    5.4283   51.4627   27.7196 H   0  0  0  0  0  0  0  0  0  0  0  0
    4.4572   49.9545   27.5499 H   0  0  0  0  0  0  0  0  0  0  0  0
    8.3072   51.1942   27.2541 H   0  0  0  0  0  0  0  0  0  0  0  0
    7.5529   46.9711   24.7095 H   0  0  0  0  0  0  0  0  0  0  0  0
   10.1002   50.5503   22.8965 H   0  0  0  0  0  0  0  0  0  0  0  0
   11.3584   49.7182   23.9286 H   0  0  0  0  0  0  0  0  0  0  0  0
    9.8225   40.7225   31.7631 H   0  0  0  0  0  0  0  0  0  0  0  0
   11.3827   41.5439   31.4669 H   0  0  0  0  0  0  0  0  0  0  0  0
   11.6978   39.5037   30.3478 H   0  0  0  0  0  0  0  0  0  0  0  0
   10.1084   38.2787   32.6626 H   0  0  0  0  0  0  0  0  0  0  0  0
   13.6638   37.4472   31.2214 H   0  0  0  0  0  0  0  0  0  0  0  0
    8.9763   37.4191   30.9532 H   0  0  0  0  0  0  0  0  0  0  0  0
   11.2821   36.3054   32.5172 H   0  0  0  0  0  0  0  0  0  0  0  0
   10.8658   35.6935   30.4652 H   0  0  0  0  0  0  0  0  0  0  0  0
   12.3294   38.3523   34.7444 H   0  0  0  0  0  0  0  0  0  0  0  0
   16.7561   34.1778   32.4621 H   0  0  0  0  0  0  0  0  0  0  0  0
   15.3533   35.7361   37.5138 H   0  0  0  0  0  0  0  0  0  0  0  0
   16.6345   34.5300   37.1416 H   0  0  0  0  0  0  0  0  0  0  0  0
  1  2  2  0
  1  3  1  0
  3  4  1  0
  4  5  1  0
  6  1  1  0
  7  6  1  0
  6  8  1  0
  8  9  1  0
  9 10  2  0
 11  9  1  0
 10 12  1  0
 13 11  2  0
 12 14  2  0
 14 13  1  0
 14 15  1  0
 15 16  1  0
 16 17  1  0
 16 18  1  0
 18 19  2  0
 20 18  1  0
 19 21  1  0
 22 20  2  0
 20 23  1  0
 21 24  1  0
 21 25  2  0
 25 22  1  0
 23 26  1  0
 23 27  2  0
 24 28  1  0
 25 29  1  0
 28 29  1  0
  4 30  2  0
  4 31  1  0
 32 31  1  0
 32 33  1  0
 33 34  1  0
 33 35  1  0
 34 36  1  0
 35 37  1  0
 35 38  1  0
 38 36  1  0
 36 39  1  0
 38 40  1  0
 41 39  1  0
 42 39  1  0
 43 41  2  0
 41 44  1  0
 45 42  2  0
 46 43  1  0
 44 47  2  0
 44 45  1  0
 48 46  2  0
 48 47  1  0
 47 49  1  0
  6 50  1  1
  7 51  1  0
  7 52  1  0
  8 53  1  0
  8 54  1  0
 10 55  1  0
 11 56  1  0
 12 57  1  0
 13 58  1  0
 16 59  1  1
 17 60  1  0
 17 61  1  0
 17 62  1  0
 19 63  1  0
 22 64  1  0
 28 65  1  0
 28 66  1  0
 32 67  1  0
 32 68  1  0
 33 69  1  0
 35 70  1  0
 36 71  1  0
 37 72  1  0
 38 73  1  0
 40 74  1  0
 42 75  1  0
 46 76  1  0
 49 77  1  0
 49 78  1  0
M  CHG  3   5  -1  23   1  26  -1
M  END
>  <EmbedRMS>  (63) 
0.0825672811516

$$$$

     RDKit          3D

 78 83  0  0  0  0  0  0  0  0999 V2000
   10.2834   43.7662   33.8256 C   0  0  0  0  0  0  0  0  0  0  0  0
   11.4102   43.5930   34.3753 O   0  0  0  0  0  0  0  0  0  0  0  0
    9.3637   42.7255   33.7348 O   0  0  0  0  0  0  0  0  0  0  0  0
    9.8906   41.2265   34.2933 P   0  0  0  0  0  0  0  0  0  0  0  0
   10.3743   41.4557   35.8827 O   0  0  0  0  0  0  0  0  0  0  0  0
    9.9547   45.0695   33.2035 C   0  0  1  0  0  0  0  0  0  0  0  0
   11.0274   46.0321   33.4756 N   0  0  0  0  0  0  0  0  0  0  0  0
    9.7466   44.8480   31.6876 C   0  0  0  0  0  0  0  0  0  0  0  0
    8.7923   45.8408   31.0844 C   0  0  0  0  0  0  0  0  0  0  0  0
    7.4055   45.6018   31.0994 C   0  0  0  0  0  0  0  0  0  0  0  0
    9.2822   46.9878   30.4424 C   0  0  0  0  0  0  0  0  0  0  0  0
    6.5267   46.5035   30.4843 C   0  0  0  0  0  0  0  0  0  0  0  0
    8.4030   47.8900   29.8322 C   0  0  0  0  0  0  0  0  0  0  0  0
    7.0142   47.6523   29.8463 C   0  0  0  0  0  0  0  0  0  0  0  0
    6.0893   48.5198   29.2425 O   0  0  0  0  0  0  0  0  0  0  0  0
    6.4190   49.7011   28.5058 C   0  0  2  0  0  0  0  0  0  0  0  0
    5.1333   50.4714   28.2139 C   0  0  0  0  0  0  0  0  0  0  0  0
    7.1131   49.3547   27.1981 C   0  0  0  0  0  0  0  0  0  0  0  0
    6.6761   48.2157   26.4768 C   0  0  0  0  0  0  0  0  0  0  0  0
    8.1214   50.1992   26.6257 C   0  0  0  0  0  0  0  0  0  0  0  0
    7.2561   47.9473   25.2439 C   0  0  0  0  0  0  0  0  0  0  0  0
    8.6632   49.8850   25.3600 C   0  0  0  0  0  0  0  0  0  0  0  0
    8.5832   51.3824   27.2911 N   0  0  0  0  0  0  0  0  0  0  0  0
    6.9929   46.9014   24.3804 O   0  0  0  0  0  0  0  0  0  0  0  0
    8.2071   48.7468   24.7088 C   0  0  0  0  0  0  0  0  0  0  0  0
    8.7279   52.5473   26.5740 O   0  0  0  0  0  0  0  0  0  0  0  0
    9.1217   51.2967   28.4134 O   0  0  0  0  0  0  0  0  0  0  0  0
    7.8362   47.0543   23.2305 C   0  0  0  0  0  0  0  0  0  0  0  0
    8.5945   48.2456   23.4810 O   0  0  0  0  0  0  0  0  0  0  0  0
    8.8123   40.1850   34.2127 O   0  0  0  0  0  0  0  0  0  0  0  0
   11.2407   40.7945   33.3670 O   0  0  0  0  0  0  0  0  0  0  0  0
   10.9135   40.6866   31.9954 C   0  0  0  0  0  0  0  0  0  0  0  0
   11.5167   39.3787   31.4404 C   0  0  0  0  0  0  0  0  0  0  0  0
   12.7486   39.0849   32.0734 O   0  0  0  0  0  0  0  0  0  0  0  0
   10.6039   38.1884   31.6669 C   0  0  0  0  0  0  0  0  0  0  0  0
   12.9329   37.6776   32.0284 C   0  0  0  0  0  0  0  0  0  0  0  0
    9.6374   38.0939   30.6484 O   0  0  0  0  0  0  0  0  0  0  0  0
   11.5737   37.0141   31.7055 C   0  0  0  0  0  0  0  0  0  0  0  0
   13.4853   37.2120   33.3238 N   0  0  0  0  0  0  0  0  0  0  0  0
   11.6210   36.3379   30.4683 O   0  0  0  0  0  0  0  0  0  0  0  0
   14.4804   36.3319   33.5726 C   0  0  0  0  0  0  0  0  0  0  0  0
   13.1141   37.6275   34.5689 C   0  0  0  0  0  0  0  0  0  0  0  0
   15.2076   35.6152   32.6740 N   0  0  0  0  0  0  0  0  0  0  0  0
   14.6761   36.2306   34.9181 C   0  0  0  0  0  0  0  0  0  0  0  0
   13.8218   37.0451   35.5783 N   0  0  0  0  0  0  0  0  0  0  0  0
   16.1642   34.7600   33.1548 C   0  0  0  0  0  0  0  0  0  0  0  0
   15.6527   35.3506   35.4131 C   0  0  0  0  0  0  0  0  0  0  0  0
   16.3795   34.6315   34.5043 N   0  0  0  0  0  0  0  0  0  0  0  0
   15.9000   35.1933   36.8090 N   0  0  0  0  0  0  0  0  0  0  0  0
    9.0121   45.4318   33.6714 H   0  0  0  0  0  0  0  0  0  0  0  0
   10.7260   46.9687   33.1212 H   0  0  0  0  0  0  0  0  0  0  0  0
   11.8906   45.7658   32.9469 H   0  0  0  0  0  0  0  0  0  0  0  0
   10.7229   44.8814   31.1556 H   0  0  0  0  0  0  0  0  0  0  0  0
    9.3414   43.8329   31.4762 H   0  0  0  0  0  0  0  0  0  0  0  0
    7.0083   44.7170   31.5816 H   0  0  0  0  0  0  0  0  0  0  0  0
   10.3468   47.1850   30.4116 H   0  0  0  0  0  0  0  0  0  0  0  0
    5.4622   46.3068   30.5013 H   0  0  0  0  0  0  0  0  0  0  0  0
    8.8159   48.7635   29.3503 H   0  0  0  0  0  0  0  0  0  0  0  0
    7.0449   50.3475   29.1506 H   0  0  0  0  0  0  0  0  0  0  0  0
    4.6298   50.7371   29.1676 H   0  0  0  0  0  0  0  0  0  0  0  0
    5.3636   51.4091   27.6640 H   0  0  0  0  0  0  0  0  0  0  0  0
    4.4380   49.8540   27.6054 H   0  0  0  0  0  0  0  0  0  0  0  0
    5.8987   47.5659   26.8578 H   0  0  0  0  0  0  0  0  0  0  0  0
    9.4234   50.5064   24.9041 H   0  0  0  0  0  0  0  0  0  0  0  0
    7.2195   47.1779   22.3157 H   0  0  0  0  0  0  0  0  0  0  0  0
    8.5152   46.1813   23.1333 H   0  0  0  0  0  0  0  0  0  0  0  0
   11.3827   41.5438   31.4669 H   0  0  0  0  0  0  0  0  0  0  0  0
    9.8226   40.7225   31.7631 H   0  0  0  0  0  0  0  0  0  0  0  0
   11.6979   39.5037   30.3478 H   0  0  0  0  0  0  0  0  0  0  0  0
   10.1084   38.2787   32.6626 H   0  0  0  0  0  0  0  0  0  0  0  0
   13.6638   37.4472   31.2214 H   0  0  0  0  0  0  0  0  0  0  0  0
    8.9763   37.4191   30.9532 H   0  0  0  0  0  0  0  0  0  0  0  0
   11.2821   36.3054   32.5171 H   0  0  0  0  0  0  0  0  0  0  0  0
   10.8658   35.6935   30.4652 H   0  0  0  0  0  0  0  0  0  0  0  0
   12.3293   38.3523   34.7445 H   0  0  0  0  0  0  0  0  0  0  0  0
   16.7561   34.1778   32.4621 H   0  0  0  0  0  0  0  0  0  0  0  0
   16.6345   34.5300   37.1416 H   0  0  0  0  0  0  0  0  0  0  0  0
   15.3533   35.7361   37.5138 H   0  0  0  0  0  0  0  0  0  0  0  0
  1  2  2  0
  1  3  1  0
  3  4  1  0
  4  5  1  0
  6  1  1  0
  7  6  1  0
  6  8  1  0
  8  9  1  0
  9 10  2  0
 11  9  1  0
 10 12  1  0
 13 11  2  0
 12 14  2  0
 14 13  1  0
 14 15  1  0
 15 16  1  0
 16 17  1  0
 16 18  1  0
 18 19  2  0
 20 18  1  0
 19 21  1  0
 22 20  2  0
 20 23  1  0
 21 24  1  0
 21 25  2  0
 25 22  1  0
 23 26  1  0
 23 27  2  0
 24 28  1  0
 25 29  1  0
 28 29  1  0
  4 30  2  0
  4 31  1  0
 32 31  1  0
 32 33  1  0
 33 34  1  0
 33 35  1  0
 34 36  1  0
 35 37  1  0
 35 38  1  0
 38 36  1  0
 36 39  1  0
 38 40  1  0
 41 39  1  0
 42 39  1  0
 43 41  2  0
 41 44  1  0
 45 42  2  0
 46 43  1  0
 44 47  2  0
 44 45  1  0
 48 46  2  0
 48 47  1  0
 47 49  1  0
  6 50  1  1
  7 51  1  0
  7 52  1  0
  8 53  1  0
  8 54  1  0
 10 55  1  0
 11 56  1  0
 12 57  1  0
 13 58  1  0
 16 59  1  1
 17 60  1  0
 17 61  1  0
 17 62  1  0
 19 63  1  0
 22 64  1  0
 28 65  1  0
 28 66  1  0
 32 67  1  0
 32 68  1  0
 33 69  1  0
 35 70  1  0
 36 71  1  0
 37 72  1  0
 38 73  1  0
 40 74  1  0
 42 75  1  0
 46 76  1  0
 49 77  1  0
 49 78  1  0
M  CHG  3   5  -1  23   1  26  -1
M  END
>  <EmbedRMS>  (64) 
0.0825663358351

$$$$

     RDKit          3D

 78 83  0  0  0  0  0  0  0  0999 V2000
   10.2837   43.7627   33.8272 C   0  0  0  0  0  0  0  0  0  0  0  0
   11.4102   43.5865   34.3764 O   0  0  0  0  0  0  0  0  0  0  0  0
    9.3630   42.7236   33.7351 O   0  0  0  0  0  0  0  0  0  0  0  0
    9.8897   41.2248   34.2934 P   0  0  0  0  0  0  0  0  0  0  0  0
   10.3734   41.4544   35.8828 O   0  0  0  0  0  0  0  0  0  0  0  0
    9.9547   45.0700   33.2059 C   0  0  1  0  0  0  0  0  0  0  0  0
   11.0197   46.0481   33.4564 N   0  0  0  0  0  0  0  0  0  0  0  0
    9.7499   44.8511   31.6917 C   0  0  0  0  0  0  0  0  0  0  0  0
    8.7940   45.8420   31.0863 C   0  0  0  0  0  0  0  0  0  0  0  0
    7.4057   45.6015   31.1015 C   0  0  0  0  0  0  0  0  0  0  0  0
    9.2835   46.9912   30.4453 C   0  0  0  0  0  0  0  0  0  0  0  0
    6.5253   46.5033   30.4871 C   0  0  0  0  0  0  0  0  0  0  0  0
    8.4018   47.8914   29.8351 C   0  0  0  0  0  0  0  0  0  0  0  0
    7.0217   47.6451   29.8437 C   0  0  0  0  0  0  0  0  0  0  0  0
    6.1431   48.5505   29.2435 O   0  0  0  0  0  0  0  0  0  0  0  0
    5.7855   48.5197   27.8581 C   0  0  2  0  0  0  0  0  0  0  0  0
    4.8109   47.3757   27.5576 C   0  0  0  0  0  0  0  0  0  0  0  0
    7.0152   48.5930   26.9538 C   0  0  0  0  0  0  0  0  0  0  0  0
    7.4617   49.8859   26.5811 C   0  0  0  0  0  0  0  0  0  0  0  0
    7.7886   47.4528   26.5421 C   0  0  0  0  0  0  0  0  0  0  0  0
    8.6211   50.0032   25.8256 C   0  0  0  0  0  0  0  0  0  0  0  0
    8.9606   47.6327   25.7774 C   0  0  0  0  0  0  0  0  0  0  0  0
    7.4042   46.1166   26.8674 N   0  0  0  0  0  0  0  0  0  0  0  0
    9.2295   51.1525   25.3590 O   0  0  0  0  0  0  0  0  0  0  0  0
    9.3393   48.9242   25.4414 C   0  0  0  0  0  0  0  0  0  0  0  0
    6.6171   45.4215   25.9794 O   0  0  0  0  0  0  0  0  0  0  0  0
    8.0718   45.4776   27.7054 O   0  0  0  0  0  0  0  0  0  0  0  0
   10.4049   50.7673   24.6330 C   0  0  0  0  0  0  0  0  0  0  0  0
   10.4371   49.3356   24.7104 O   0  0  0  0  0  0  0  0  0  0  0  0
    8.8115   40.1834   34.2125 O   0  0  0  0  0  0  0  0  0  0  0  0
   11.2401   40.7936   33.3672 O   0  0  0  0  0  0  0  0  0  0  0  0
   10.9134   40.6865   31.9955 C   0  0  0  0  0  0  0  0  0  0  0  0
   11.5166   39.3786   31.4403 C   0  0  0  0  0  0  0  0  0  0  0  0
   12.7486   39.0849   32.0734 O   0  0  0  0  0  0  0  0  0  0  0  0
   10.6039   38.1883   31.6669 C   0  0  0  0  0  0  0  0  0  0  0  0
   12.9329   37.6775   32.0283 C   0  0  0  0  0  0  0  0  0  0  0  0
    9.6373   38.0938   30.6484 O   0  0  0  0  0  0  0  0  0  0  0  0
   11.5737   37.0140   31.7055 C   0  0  0  0  0  0  0  0  0  0  0  0
   13.4853   37.2120   33.3238 N   0  0  0  0  0  0  0  0  0  0  0  0
   11.6210   36.3379   30.4683 O   0  0  0  0  0  0  0  0  0  0  0  0
   14.4804   36.3319   33.5726 C   0  0  0  0  0  0  0  0  0  0  0  0
   13.1141   37.6275   34.5689 C   0  0  0  0  0  0  0  0  0  0  0  0
   15.2076   35.6152   32.6740 N   0  0  0  0  0  0  0  0  0  0  0  0
   14.6761   36.2306   34.9181 C   0  0  0  0  0  0  0  0  0  0  0  0
   13.8218   37.0451   35.5783 N   0  0  0  0  0  0  0  0  0  0  0  0
   16.1642   34.7600   33.1548 C   0  0  0  0  0  0  0  0  0  0  0  0
   15.6527   35.3507   35.4131 C   0  0  0  0  0  0  0  0  0  0  0  0
   16.3795   34.6315   34.5043 N   0  0  0  0  0  0  0  0  0  0  0  0
   15.9000   35.1933   36.8090 N   0  0  0  0  0  0  0  0  0  0  0  0
    9.0098   45.4349   33.6666 H   0  0  0  0  0  0  0  0  0  0  0  0
   11.1134   46.1991   34.4877 H   0  0  0  0  0  0  0  0  0  0  0  0
   11.9347   45.6933   33.0918 H   0  0  0  0  0  0  0  0  0  0  0  0
   10.7300   44.8928   31.1666 H   0  0  0  0  0  0  0  0  0  0  0  0
    9.3505   43.8347   31.4754 H   0  0  0  0  0  0  0  0  0  0  0  0
    7.0092   44.7178   31.5860 H   0  0  0  0  0  0  0  0  0  0  0  0
   10.3474   47.1920   30.4172 H   0  0  0  0  0  0  0  0  0  0  0  0
    5.4599   46.3137   30.5104 H   0  0  0  0  0  0  0  0  0  0  0  0
    8.7913   48.7774   29.3502 H   0  0  0  0  0  0  0  0  0  0  0  0
    5.1892   49.4413   27.6761 H   0  0  0  0  0  0  0  0  0  0  0  0
    5.1712   46.4114   27.9652 H   0  0  0  0  0  0  0  0  0  0  0  0
    3.8336   47.5872   28.0414 H   0  0  0  0  0  0  0  0  0  0  0  0
    4.6432   47.2874   26.4632 H   0  0  0  0  0  0  0  0  0  0  0  0
    6.9298   50.7789   26.8848 H   0  0  0  0  0  0  0  0  0  0  0  0
    9.5543   46.7866   25.4554 H   0  0  0  0  0  0  0  0  0  0  0  0
   10.3261   51.0921   23.5743 H   0  0  0  0  0  0  0  0  0  0  0  0
   11.3098   51.1973   25.1112 H   0  0  0  0  0  0  0  0  0  0  0  0
    9.8226   40.7226   31.7628 H   0  0  0  0  0  0  0  0  0  0  0  0
   11.3831   41.5438   31.4675 H   0  0  0  0  0  0  0  0  0  0  0  0
   11.6978   39.5037   30.3477 H   0  0  0  0  0  0  0  0  0  0  0  0
   10.1084   38.2786   32.6626 H   0  0  0  0  0  0  0  0  0  0  0  0
   13.6638   37.4472   31.2214 H   0  0  0  0  0  0  0  0  0  0  0  0
    8.9763   37.4190   30.9532 H   0  0  0  0  0  0  0  0  0  0  0  0
   11.2821   36.3054   32.5171 H   0  0  0  0  0  0  0  0  0  0  0  0
   10.8658   35.6935   30.4652 H   0  0  0  0  0  0  0  0  0  0  0  0
   12.3294   38.3523   34.7444 H   0  0  0  0  0  0  0  0  0  0  0  0
   16.7561   34.1778   32.4621 H   0  0  0  0  0  0  0  0  0  0  0  0
   16.6345   34.5300   37.1416 H   0  0  0  0  0  0  0  0  0  0  0  0
   15.3533   35.7361   37.5138 H   0  0  0  0  0  0  0  0  0  0  0  0
  1  2  2  0
  1  3  1  0
  3  4  1  0
  4  5  1  0
  6  1  1  0
  7  6  1  0
  6  8  1  0
  8  9  1  0
  9 10  2  0
 11  9  1  0
 10 12  1  0
 13 11  2  0
 12 14  2  0
 14 13  1  0
 14 15  1  0
 15 16  1  0
 16 17  1  0
 16 18  1  0
 18 19  2  0
 20 18  1  0
 19 21  1  0
 22 20  2  0
 20 23  1  0
 21 24  1  0
 21 25  2  0
 25 22  1  0
 23 26  1  0
 23 27  2  0
 24 28  1  0
 25 29  1  0
 28 29  1  0
  4 30  2  0
  4 31  1  0
 32 31  1  0
 32 33  1  0
 33 34  1  0
 33 35  1  0
 34 36  1  0
 35 37  1  0
 35 38  1  0
 38 36  1  0
 36 39  1  0
 38 40  1  0
 41 39  1  0
 42 39  1  0
 43 41  2  0
 41 44  1  0
 45 42  2  0
 46 43  1  0
 44 47  2  0
 44 45  1  0
 48 46  2  0
 48 47  1  0
 47 49  1  0
  6 50  1  1
  7 51  1  0
  7 52  1  0
  8 53  1  0
  8 54  1  0
 10 55  1  0
 11 56  1  0
 12 57  1  0
 13 58  1  0
 16 59  1  6
 17 60  1  0
 17 61  1  0
 17 62  1  0
 19 63  1  0
 22 64  1  0
 28 65  1  0
 28 66  1  0
 32 67  1  0
 32 68  1  0
 33 69  1  0
 35 70  1  0
 36 71  1  0
 37 72  1  0
 38 73  1  0
 40 74  1  0
 42 75  1  0
 46 76  1  0
 49 77  1  0
 49 78  1  0
M  CHG  3   5  -1  23   1  26  -1
M  END
>  <EmbedRMS>  (65) 
0.0835709605927

$$$$

     RDKit          3D

 78 83  0  0  0  0  0  0  0  0999 V2000
   10.2833   43.7662   33.8257 C   0  0  0  0  0  0  0  0  0  0  0  0
   11.4101   43.5931   34.3752 O   0  0  0  0  0  0  0  0  0  0  0  0
    9.3636   42.7255   33.7350 O   0  0  0  0  0  0  0  0  0  0  0  0
    9.8902   41.2267   34.2942 P   0  0  0  0  0  0  0  0  0  0  0  0
   10.3736   41.4561   35.8836 O   0  0  0  0  0  0  0  0  0  0  0  0
    9.9545   45.0695   33.2033 C   0  0  1  0  0  0  0  0  0  0  0  0
   11.0271   46.0323   33.4755 N   0  0  0  0  0  0  0  0  0  0  0  0
    9.7469   44.8476   31.6873 C   0  0  0  0  0  0  0  0  0  0  0  0
    8.7926   45.8397   31.0831 C   0  0  0  0  0  0  0  0  0  0  0  0
    7.4060   45.6016   31.0993 C   0  0  0  0  0  0  0  0  0  0  0  0
    9.2820   46.9877   30.4433 C   0  0  0  0  0  0  0  0  0  0  0  0
    6.5274   46.5046   30.4860 C   0  0  0  0  0  0  0  0  0  0  0  0
    8.4029   47.8903   29.8338 C   0  0  0  0  0  0  0  0  0  0  0  0
    7.0134   47.6522   29.8439 C   0  0  0  0  0  0  0  0  0  0  0  0
    6.0764   48.5228   29.2529 O   0  0  0  0  0  0  0  0  0  0  0  0
    6.3324   49.5825   28.3159 C   0  0  2  0  0  0  0  0  0  0  0  0
    7.1502   49.0581   27.1176 C   0  0  0  0  0  0  0  0  0  0  0  0
    6.9328   50.8331   28.9646 C   0  0  0  0  0  0  0  0  0  0  0  0
    7.1823   50.8627   30.3631 C   0  0  0  0  0  0  0  0  0  0  0  0
    7.2432   52.0041   28.1886 C   0  0  0  0  0  0  0  0  0  0  0  0
    7.8017   51.9786   30.9094 C   0  0  0  0  0  0  0  0  0  0  0  0
    7.8905   53.1023   28.7975 C   0  0  0  0  0  0  0  0  0  0  0  0
    6.8796   52.1145   26.8051 N   0  0  0  0  0  0  0  0  0  0  0  0
    8.1573   52.2041   32.2254 O   0  0  0  0  0  0  0  0  0  0  0  0
    8.1506   53.0461   30.1583 C   0  0  0  0  0  0  0  0  0  0  0  0
    7.7281   52.7452   25.9248 O   0  0  0  0  0  0  0  0  0  0  0  0
    5.7088   51.8746   26.4456 O   0  0  0  0  0  0  0  0  0  0  0  0
    8.7725   53.4973   32.3020 C   0  0  0  0  0  0  0  0  0  0  0  0
    8.7466   54.0009   30.9596 O   0  0  0  0  0  0  0  0  0  0  0  0
    8.8121   40.1850   34.2131 O   0  0  0  0  0  0  0  0  0  0  0  0
   11.2404   40.7941   33.3690 O   0  0  0  0  0  0  0  0  0  0  0  0
   10.9143   40.6898   31.9972 C   0  0  0  0  0  0  0  0  0  0  0  0
   11.5261   39.3885   31.4376 C   0  0  0  0  0  0  0  0  0  0  0  0
   12.7504   39.0888   32.0816 O   0  0  0  0  0  0  0  0  0  0  0  0
   10.6115   38.1910   31.6460 C   0  0  0  0  0  0  0  0  0  0  0  0
   12.9357   37.6812   32.0303 C   0  0  0  0  0  0  0  0  0  0  0  0
    9.6146   38.0859   30.6534 O   0  0  0  0  0  0  0  0  0  0  0  0
   11.5769   37.0148   31.7012 C   0  0  0  0  0  0  0  0  0  0  0  0
   13.4849   37.2112   33.3247 N   0  0  0  0  0  0  0  0  0  0  0  0
   11.6193   36.3261   30.4724 O   0  0  0  0  0  0  0  0  0  0  0  0
   14.4802   36.3313   33.5730 C   0  0  0  0  0  0  0  0  0  0  0  0
   13.1141   37.6268   34.5698 C   0  0  0  0  0  0  0  0  0  0  0  0
   15.2075   35.6151   32.6741 N   0  0  0  0  0  0  0  0  0  0  0  0
   14.6761   36.2300   34.9184 C   0  0  0  0  0  0  0  0  0  0  0  0
   13.8220   37.0445   35.5789 N   0  0  0  0  0  0  0  0  0  0  0  0
   16.1642   34.7600   33.1547 C   0  0  0  0  0  0  0  0  0  0  0  0
   15.6529   35.3503   35.4131 C   0  0  0  0  0  0  0  0  0  0  0  0
   16.3797   34.6314   34.5042 N   0  0  0  0  0  0  0  0  0  0  0  0
   15.9004   35.1930   36.8090 N   0  0  0  0  0  0  0  0  0  0  0  0
    9.0118   45.4318   33.6708 H   0  0  0  0  0  0  0  0  0  0  0  0
   11.8904   45.7663   32.9467 H   0  0  0  0  0  0  0  0  0  0  0  0
   10.7255   46.9689   33.1215 H   0  0  0  0  0  0  0  0  0  0  0  0
    9.3421   43.8323   31.4761 H   0  0  0  0  0  0  0  0  0  0  0  0
   10.7234   44.8812   31.1556 H   0  0  0  0  0  0  0  0  0  0  0  0
    7.0085   44.7177   31.5826 H   0  0  0  0  0  0  0  0  0  0  0  0
   10.3459   47.1896   30.4209 H   0  0  0  0  0  0  0  0  0  0  0  0
    5.4627   46.3093   30.5071 H   0  0  0  0  0  0  0  0  0  0  0  0
    8.8172   48.7801   29.3868 H   0  0  0  0  0  0  0  0  0  0  0  0
    5.3358   49.8752   27.9248 H   0  0  0  0  0  0  0  0  0  0  0  0
    6.9559   47.9756   26.9628 H   0  0  0  0  0  0  0  0  0  0  0  0
    8.2390   49.2101   27.2617 H   0  0  0  0  0  0  0  0  0  0  0  0
    6.8563   49.5739   26.1815 H   0  0  0  0  0  0  0  0  0  0  0  0
    6.9124   50.0486   31.0194 H   0  0  0  0  0  0  0  0  0  0  0  0
    8.1469   53.9893   28.2325 H   0  0  0  0  0  0  0  0  0  0  0  0
    8.1875   54.1617   32.9719 H   0  0  0  0  0  0  0  0  0  0  0  0
    9.8205   53.4037   32.6560 H   0  0  0  0  0  0  0  0  0  0  0  0
   11.3779   41.5526   31.4726 H   0  0  0  0  0  0  0  0  0  0  0  0
    9.8233   40.7191   31.7647 H   0  0  0  0  0  0  0  0  0  0  0  0
   11.7283   39.5312   30.3515 H   0  0  0  0  0  0  0  0  0  0  0  0
   10.1127   38.2734   32.6376 H   0  0  0  0  0  0  0  0  0  0  0  0
   13.6692   37.4566   31.2242 H   0  0  0  0  0  0  0  0  0  0  0  0
   10.0533   38.1118   29.7636 H   0  0  0  0  0  0  0  0  0  0  0  0
   11.2607   36.3148   32.5102 H   0  0  0  0  0  0  0  0  0  0  0  0
   12.1496   35.5023   30.6324 H   0  0  0  0  0  0  0  0  0  0  0  0
   12.3301   38.3524   34.7455 H   0  0  0  0  0  0  0  0  0  0  0  0
   16.7562   34.1780   32.4619 H   0  0  0  0  0  0  0  0  0  0  0  0
   15.3536   35.7357   37.5140 H   0  0  0  0  0  0  0  0  0  0  0  0
   16.6351   34.5298   37.1415 H   0  0  0  0  0  0  0  0  0  0  0  0
  1  2  2  0
  1  3  1  0
  3  4  1  0
  4  5  1  0
  6  1  1  0
  7  6  1  0
  6  8  1  0
  8  9  1  0
  9 10  2  0
 11  9  1  0
 10 12  1  0
 13 11  2  0
 12 14  2  0
 14 13  1  0
 14 15  1  0
 15 16  1  0
 16 17  1  0
 16 18  1  0
 18 19  2  0
 20 18  1  0
 19 21  1  0
 22 20  2  0
 20 23  1  0
 21 24  1  0
 21 25  2  0
 25 22  1  0
 23 26  1  0
 23 27  2  0
 24 28  1  0
 25 29  1  0
 28 29  1  0
  4 30  2  0
  4 31  1  0
 32 31  1  0
 32 33  1  0
 33 34  1  0
 33 35  1  0
 34 36  1  0
 35 37  1  0
 35 38  1  0
 38 36  1  0
 36 39  1  0
 38 40  1  0
 41 39  1  0
 42 39  1  0
 43 41  2  0
 41 44  1  0
 45 42  2  0
 46 43  1  0
 44 47  2  0
 44 45  1  0
 48 46  2  0
 48 47  1  0
 47 49  1  0
  6 50  1  1
  7 51  1  0
  7 52  1  0
  8 53  1  0
  8 54  1  0
 10 55  1  0
 11 56  1  0
 12 57  1  0
 13 58  1  0
 16 59  1  6
 17 60  1  0
 17 61  1  0
 17 62  1  0
 19 63  1  0
 22 64  1  0
 28 65  1  0
 28 66  1  0
 32 67  1  0
 32 68  1  0
 33 69  1  0
 35 70  1  0
 36 71  1  0
 37 72  1  0
 38 73  1  0
 40 74  1  0
 42 75  1  0
 46 76  1  0
 49 77  1  0
 49 78  1  0
M  CHG  3   5  -1  23   1  26  -1
M  END
>  <EmbedRMS>  (66) 
0.0816475913311

$$$$

     RDKit          3D

 78 83  0  0  0  0  0  0  0  0999 V2000
   10.2833   43.7663   33.8257 C   0  0  0  0  0  0  0  0  0  0  0  0
   11.4101   43.5932   34.3752 O   0  0  0  0  0  0  0  0  0  0  0  0
    9.3634   42.7257   33.7353 O   0  0  0  0  0  0  0  0  0  0  0  0
    9.8902   41.2269   34.2942 P   0  0  0  0  0  0  0  0  0  0  0  0
   10.3739   41.4559   35.8835 O   0  0  0  0  0  0  0  0  0  0  0  0
    9.9545   45.0695   33.2033 C   0  0  1  0  0  0  0  0  0  0  0  0
   11.0271   46.0323   33.4755 N   0  0  0  0  0  0  0  0  0  0  0  0
    9.7469   44.8476   31.6874 C   0  0  0  0  0  0  0  0  0  0  0  0
    8.7926   45.8397   31.0831 C   0  0  0  0  0  0  0  0  0  0  0  0
    7.4060   45.6016   31.0993 C   0  0  0  0  0  0  0  0  0  0  0  0
    9.2820   46.9876   30.4433 C   0  0  0  0  0  0  0  0  0  0  0  0
    6.5274   46.5046   30.4860 C   0  0  0  0  0  0  0  0  0  0  0  0
    8.4030   47.8903   29.8338 C   0  0  0  0  0  0  0  0  0  0  0  0
    7.0134   47.6522   29.8439 C   0  0  0  0  0  0  0  0  0  0  0  0
    6.0764   48.5230   29.2531 O   0  0  0  0  0  0  0  0  0  0  0  0
    6.3335   49.5850   28.3191 C   0  0  2  0  0  0  0  0  0  0  0  0
    7.1462   49.0606   27.1173 C   0  0  0  0  0  0  0  0  0  0  0  0
    6.9401   50.8309   28.9709 C   0  0  0  0  0  0  0  0  0  0  0  0
    7.1783   50.8597   30.3715 C   0  0  0  0  0  0  0  0  0  0  0  0
    7.2663   51.9978   28.1966 C   0  0  0  0  0  0  0  0  0  0  0  0
    7.8008   51.9716   30.9223 C   0  0  0  0  0  0  0  0  0  0  0  0
    7.9148   53.0934   28.8108 C   0  0  0  0  0  0  0  0  0  0  0  0
    6.9115   52.1055   26.8104 N   0  0  0  0  0  0  0  0  0  0  0  0
    8.1469   52.1955   32.2412 O   0  0  0  0  0  0  0  0  0  0  0  0
    8.1630   53.0364   30.1737 C   0  0  0  0  0  0  0  0  0  0  0  0
    5.6172   51.8644   26.4122 O   0  0  0  0  0  0  0  0  0  0  0  0
    7.6996   52.6435   26.0054 O   0  0  0  0  0  0  0  0  0  0  0  0
    8.7697   53.4846   32.3223 C   0  0  0  0  0  0  0  0  0  0  0  0
    8.7584   53.9877   30.9795 O   0  0  0  0  0  0  0  0  0  0  0  0
    8.8121   40.1852   34.2131 O   0  0  0  0  0  0  0  0  0  0  0  0
   11.2402   40.7952   33.3681 O   0  0  0  0  0  0  0  0  0  0  0  0
   10.9125   40.6877   31.9968 C   0  0  0  0  0  0  0  0  0  0  0  0
   11.5169   39.3811   31.4421 C   0  0  0  0  0  0  0  0  0  0  0  0
   12.7500   39.0881   32.0759 O   0  0  0  0  0  0  0  0  0  0  0  0
   10.6043   38.1893   31.6659 C   0  0  0  0  0  0  0  0  0  0  0  0
   12.9395   37.6814   32.0280 C   0  0  0  0  0  0  0  0  0  0  0  0
    9.6353   38.0951   30.6499 O   0  0  0  0  0  0  0  0  0  0  0  0
   11.5804   37.0191   31.6934 C   0  0  0  0  0  0  0  0  0  0  0  0
   13.4851   37.2119   33.3244 N   0  0  0  0  0  0  0  0  0  0  0  0
   11.6118   36.3189   30.4673 O   0  0  0  0  0  0  0  0  0  0  0  0
   14.4801   36.3316   33.5732 C   0  0  0  0  0  0  0  0  0  0  0  0
   13.1139   37.6277   34.5692 C   0  0  0  0  0  0  0  0  0  0  0  0
   15.2076   35.6154   32.6744 N   0  0  0  0  0  0  0  0  0  0  0  0
   14.6756   36.2303   34.9186 C   0  0  0  0  0  0  0  0  0  0  0  0
   13.8215   37.0451   35.5786 N   0  0  0  0  0  0  0  0  0  0  0  0
   16.1642   34.7602   33.1551 C   0  0  0  0  0  0  0  0  0  0  0  0
   15.6526   35.3505   35.4134 C   0  0  0  0  0  0  0  0  0  0  0  0
   16.3796   34.6316   34.5045 N   0  0  0  0  0  0  0  0  0  0  0  0
   15.9000   35.1933   36.8093 N   0  0  0  0  0  0  0  0  0  0  0  0
    9.0118   45.4319   33.6708 H   0  0  0  0  0  0  0  0  0  0  0  0
   11.8904   45.7662   32.9467 H   0  0  0  0  0  0  0  0  0  0  0  0
   10.7255   46.9690   33.1214 H   0  0  0  0  0  0  0  0  0  0  0  0
   10.7234   44.8811   31.1556 H   0  0  0  0  0  0  0  0  0  0  0  0
    9.3421   43.8323   31.4762 H   0  0  0  0  0  0  0  0  0  0  0  0
    7.0085   44.7176   31.5825 H   0  0  0  0  0  0  0  0  0  0  0  0
   10.3459   47.1895   30.4208 H   0  0  0  0  0  0  0  0  0  0  0  0
    5.4627   46.3093   30.5070 H   0  0  0  0  0  0  0  0  0  0  0  0
    8.8173   48.7798   29.3863 H   0  0  0  0  0  0  0  0  0  0  0  0
    5.3373   49.8829   27.9315 H   0  0  0  0  0  0  0  0  0  0  0  0
    6.9463   47.9794   26.9596 H   0  0  0  0  0  0  0  0  0  0  0  0
    6.8521   49.5807   26.1837 H   0  0  0  0  0  0  0  0  0  0  0  0
    8.2360   49.2065   27.2596 H   0  0  0  0  0  0  0  0  0  0  0  0
    6.8971   50.0478   31.0259 H   0  0  0  0  0  0  0  0  0  0  0  0
    8.1816   53.9783   28.2473 H   0  0  0  0  0  0  0  0  0  0  0  0
    9.8141   53.3844   32.6852 H   0  0  0  0  0  0  0  0  0  0  0  0
    8.1836   54.1532   32.9871 H   0  0  0  0  0  0  0  0  0  0  0  0
    9.8216   40.7222   31.7647 H   0  0  0  0  0  0  0  0  0  0  0  0
   11.3808   41.5456   31.4686 H   0  0  0  0  0  0  0  0  0  0  0  0
   11.6986   39.5089   30.3499 H   0  0  0  0  0  0  0  0  0  0  0  0
   10.1109   38.2737   32.6630 H   0  0  0  0  0  0  0  0  0  0  0  0
   13.6783   37.4562   31.2271 H   0  0  0  0  0  0  0  0  0  0  0  0
    9.0020   37.3860   30.9348 H   0  0  0  0  0  0  0  0  0  0  0  0
   11.2807   36.3053   32.4921 H   0  0  0  0  0  0  0  0  0  0  0  0
   11.8819   36.9599   29.7584 H   0  0  0  0  0  0  0  0  0  0  0  0
   12.3303   38.3538   34.7445 H   0  0  0  0  0  0  0  0  0  0  0  0
   16.7564   34.1783   32.4623 H   0  0  0  0  0  0  0  0  0  0  0  0
   15.3532   35.7359   37.5142 H   0  0  0  0  0  0  0  0  0  0  0  0
   16.6347   34.5301   37.1419 H   0  0  0  0  0  0  0  0  0  0  0  0
  1  2  2  0
  1  3  1  0
  3  4  1  0
  4  5  1  0
  6  1  1  0
  7  6  1  0
  6  8  1  0
  8  9  1  0
  9 10  2  0
 11  9  1  0
 10 12  1  0
 13 11  2  0
 12 14  2  0
 14 13  1  0
 14 15  1  0
 15 16  1  0
 16 17  1  0
 16 18  1  0
 18 19  2  0
 20 18  1  0
 19 21  1  0
 22 20  2  0
 20 23  1  0
 21 24  1  0
 21 25  2  0
 25 22  1  0
 23 26  1  0
 23 27  2  0
 24 28  1  0
 25 29  1  0
 28 29  1  0
  4 30  2  0
  4 31  1  0
 32 31  1  0
 32 33  1  0
 33 34  1  0
 33 35  1  0
 34 36  1  0
 35 37  1  0
 35 38  1  0
 38 36  1  0
 36 39  1  0
 38 40  1  0
 41 39  1  0
 42 39  1  0
 43 41  2  0
 41 44  1  0
 45 42  2  0
 46 43  1  0
 44 47  2  0
 44 45  1  0
 48 46  2  0
 48 47  1  0
 47 49  1  0
  6 50  1  1
  7 51  1  0
  7 52  1  0
  8 53  1  0
  8 54  1  0
 10 55  1  0
 11 56  1  0
 12 57  1  0
 13 58  1  0
 16 59  1  6
 17 60  1  0
 17 61  1  0
 17 62  1  0
 19 63  1  0
 22 64  1  0
 28 65  1  0
 28 66  1  0
 32 67  1  0
 32 68  1  0
 33 69  1  0
 35 70  1  0
 36 71  1  0
 37 72  1  0
 38 73  1  0
 40 74  1  0
 42 75  1  0
 46 76  1  0
 49 77  1  0
 49 78  1  0
M  CHG  3   5  -1  23   1  26  -1
M  END
>  <EmbedRMS>  (67) 
0.0815917044136

$$$$

     RDKit          3D

 78 83  0  0  0  0  0  0  0  0999 V2000
   10.2805   43.7663   33.8249 C   0  0  0  0  0  0  0  0  0  0  0  0
   11.4111   43.5919   34.3667 O   0  0  0  0  0  0  0  0  0  0  0  0
    9.3622   42.7247   33.7343 O   0  0  0  0  0  0  0  0  0  0  0  0
    9.8904   41.2264   34.2936 P   0  0  0  0  0  0  0  0  0  0  0  0
   10.3732   41.4564   35.8832 O   0  0  0  0  0  0  0  0  0  0  0  0
    9.9459   45.0735   33.2111 C   0  0  1  0  0  0  0  0  0  0  0  0
   11.0266   46.0291   33.4705 N   0  0  0  0  0  0  0  0  0  0  0  0
    9.7535   44.8537   31.6948 C   0  0  0  0  0  0  0  0  0  0  0  0
    8.7955   45.8409   31.0846 C   0  0  0  0  0  0  0  0  0  0  0  0
    7.4086   45.6008   31.1012 C   0  0  0  0  0  0  0  0  0  0  0  0
    9.2830   46.9878   30.4402 C   0  0  0  0  0  0  0  0  0  0  0  0
    6.5281   46.5014   30.4860 C   0  0  0  0  0  0  0  0  0  0  0  0
    8.4025   47.8895   29.8313 C   0  0  0  0  0  0  0  0  0  0  0  0
    7.0137   47.6501   29.8463 C   0  0  0  0  0  0  0  0  0  0  0  0
    6.0871   48.5164   29.2430 O   0  0  0  0  0  0  0  0  0  0  0  0
    6.4185   49.6761   28.4741 C   0  0  2  0  0  0  0  0  0  0  0  0
    5.1383   50.4611   28.1934 C   0  0  0  0  0  0  0  0  0  0  0  0
    7.0813   49.2773   27.1664 C   0  0  0  0  0  0  0  0  0  0  0  0
    6.5303   48.2001   26.4296 C   0  0  0  0  0  0  0  0  0  0  0  0
    8.2724   49.9171   26.6888 C   0  0  0  0  0  0  0  0  0  0  0  0
    7.1879   47.7757   25.2828 C   0  0  0  0  0  0  0  0  0  0  0  0
    8.9066   49.4307   25.5224 C   0  0  0  0  0  0  0  0  0  0  0  0
    8.8335   51.0578   27.3569 N   0  0  0  0  0  0  0  0  0  0  0  0
    6.8433   46.7485   24.4255 O   0  0  0  0  0  0  0  0  0  0  0  0
    8.3284   48.3614   24.8512 C   0  0  0  0  0  0  0  0  0  0  0  0
    8.0290   52.1173   27.7070 O   0  0  0  0  0  0  0  0  0  0  0  0
   10.0725   51.1950   27.4225 O   0  0  0  0  0  0  0  0  0  0  0  0
    7.8322   46.6875   23.3885 C   0  0  0  0  0  0  0  0  0  0  0  0
    8.7615   47.7349   23.6985 O   0  0  0  0  0  0  0  0  0  0  0  0
    8.8129   40.1841   34.2124 O   0  0  0  0  0  0  0  0  0  0  0  0
   11.2419   40.7944   33.3695 O   0  0  0  0  0  0  0  0  0  0  0  0
   10.9186   40.6911   31.9969 C   0  0  0  0  0  0  0  0  0  0  0  0
   11.5172   39.3814   31.4407 C   0  0  0  0  0  0  0  0  0  0  0  0
   12.7492   39.0856   32.0729 O   0  0  0  0  0  0  0  0  0  0  0  0
   10.6023   38.1908   31.6665 C   0  0  0  0  0  0  0  0  0  0  0  0
   12.9319   37.6781   32.0281 C   0  0  0  0  0  0  0  0  0  0  0  0
    9.6392   38.0797   30.6452 O   0  0  0  0  0  0  0  0  0  0  0  0
   11.5715   37.0165   31.7056 C   0  0  0  0  0  0  0  0  0  0  0  0
   13.4846   37.2121   33.3235 N   0  0  0  0  0  0  0  0  0  0  0  0
   11.6187   36.3383   30.4695 O   0  0  0  0  0  0  0  0  0  0  0  0
   14.4801   36.3321   33.5724 C   0  0  0  0  0  0  0  0  0  0  0  0
   13.1137   37.6276   34.5688 C   0  0  0  0  0  0  0  0  0  0  0  0
   15.2073   35.6153   32.6738 N   0  0  0  0  0  0  0  0  0  0  0  0
   14.6759   36.2308   34.9179 C   0  0  0  0  0  0  0  0  0  0  0  0
   13.8216   37.0452   35.5781 N   0  0  0  0  0  0  0  0  0  0  0  0
   16.1640   34.7602   33.1546 C   0  0  0  0  0  0  0  0  0  0  0  0
   15.6526   35.3508   35.4129 C   0  0  0  0  0  0  0  0  0  0  0  0
   16.3794   34.6317   34.5041 N   0  0  0  0  0  0  0  0  0  0  0  0
   15.8999   35.1935   36.8088 N   0  0  0  0  0  0  0  0  0  0  0  0
    8.9995   45.4380   33.6722 H   0  0  0  0  0  0  0  0  0  0  0  0
   10.7763   46.9368   33.0155 H   0  0  0  0  0  0  0  0  0  0  0  0
   11.0503   46.2277   34.4979 H   0  0  0  0  0  0  0  0  0  0  0  0
   10.7406   44.9069   31.1833 H   0  0  0  0  0  0  0  0  0  0  0  0
    9.3635   43.8351   31.4714 H   0  0  0  0  0  0  0  0  0  0  0  0
    7.0130   44.7166   31.5855 H   0  0  0  0  0  0  0  0  0  0  0  0
   10.3471   47.1870   30.4079 H   0  0  0  0  0  0  0  0  0  0  0  0
    5.4638   46.3038   30.5045 H   0  0  0  0  0  0  0  0  0  0  0  0
    8.8150   48.7658   29.3528 H   0  0  0  0  0  0  0  0  0  0  0  0
    7.0777   50.3214   29.0902 H   0  0  0  0  0  0  0  0  0  0  0  0
    5.3637   51.3673   27.5919 H   0  0  0  0  0  0  0  0  0  0  0  0
    4.6771   50.7803   29.1520 H   0  0  0  0  0  0  0  0  0  0  0  0
    4.4068   49.8333   27.6410 H   0  0  0  0  0  0  0  0  0  0  0  0
    5.6297   47.6944   26.7543 H   0  0  0  0  0  0  0  0  0  0  0  0
    9.8092   49.8887   25.1388 H   0  0  0  0  0  0  0  0  0  0  0  0
    7.3632   46.8717   22.3993 H   0  0  0  0  0  0  0  0  0  0  0  0
    8.3451   45.7030   23.4045 H   0  0  0  0  0  0  0  0  0  0  0  0
    9.8298   40.7409   31.7611 H   0  0  0  0  0  0  0  0  0  0  0  0
   11.3967   41.5459   31.4725 H   0  0  0  0  0  0  0  0  0  0  0  0
   11.6975   39.5066   30.3481 H   0  0  0  0  0  0  0  0  0  0  0  0
   10.1076   38.2647   32.6645 H   0  0  0  0  0  0  0  0  0  0  0  0
   13.6621   37.4468   31.2209 H   0  0  0  0  0  0  0  0  0  0  0  0
    8.8974   38.6943   30.8832 H   0  0  0  0  0  0  0  0  0  0  0  0
   11.2806   36.3073   32.5170 H   0  0  0  0  0  0  0  0  0  0  0  0
   10.8492   35.7110   30.4586 H   0  0  0  0  0  0  0  0  0  0  0  0
   12.3290   38.3524   34.7444 H   0  0  0  0  0  0  0  0  0  0  0  0
   16.7559   34.1780   32.4619 H   0  0  0  0  0  0  0  0  0  0  0  0
   16.6344   34.5301   37.1414 H   0  0  0  0  0  0  0  0  0  0  0  0
   15.3532   35.7363   37.5137 H   0  0  0  0  0  0  0  0  0  0  0  0
  1  2  2  0
  1  3  1  0
  3  4  1  0
  4  5  1  0
  6  1  1  0
  7  6  1  0
  6  8  1  0
  8  9  1  0
  9 10  2  0
 11  9  1  0
 10 12  1  0
 13 11  2  0
 12 14  2  0
 14 13  1  0
 14 15  1  0
 15 16  1  0
 16 17  1  0
 16 18  1  0
 18 19  2  0
 20 18  1  0
 19 21  1  0
 22 20  2  0
 20 23  1  0
 21 24  1  0
 21 25  2  0
 25 22  1  0
 23 26  1  0
 23 27  2  0
 24 28  1  0
 25 29  1  0
 28 29  1  0
  4 30  2  0
  4 31  1  0
 32 31  1  0
 32 33  1  0
 33 34  1  0
 33 35  1  0
 34 36  1  0
 35 37  1  0
 35 38  1  0
 38 36  1  0
 36 39  1  0
 38 40  1  0
 41 39  1  0
 42 39  1  0
 43 41  2  0
 41 44  1  0
 45 42  2  0
 46 43  1  0
 44 47  2  0
 44 45  1  0
 48 46  2  0
 48 47  1  0
 47 49  1  0
  6 50  1  1
  7 51  1  0
  7 52  1  0
  8 53  1  0
  8 54  1  0
 10 55  1  0
 11 56  1  0
 12 57  1  0
 13 58  1  0
 16 59  1  1
 17 60  1  0
 17 61  1  0
 17 62  1  0
 19 63  1  0
 22 64  1  0
 28 65  1  0
 28 66  1  0
 32 67  1  0
 32 68  1  0
 33 69  1  0
 35 70  1  0
 36 71  1  0
 37 72  1  0
 38 73  1  0
 40 74  1  0
 42 75  1  0
 46 76  1  0
 49 77  1  0
 49 78  1  0
M  CHG  3   5  -1  23   1  26  -1
M  END
>  <EmbedRMS>  (68) 
0.0827767867821

$$$$

     RDKit          3D

 78 83  0  0  0  0  0  0  0  0999 V2000
   10.2836   43.7628   33.8277 C   0  0  0  0  0  0  0  0  0  0  0  0
   11.4102   43.5865   34.3766 O   0  0  0  0  0  0  0  0  0  0  0  0
    9.3628   42.7238   33.7358 O   0  0  0  0  0  0  0  0  0  0  0  0
    9.8893   41.2251   34.2943 P   0  0  0  0  0  0  0  0  0  0  0  0
   10.3731   41.4545   35.8837 O   0  0  0  0  0  0  0  0  0  0  0  0
    9.9547   45.0700   33.2061 C   0  0  1  0  0  0  0  0  0  0  0  0
   11.0196   46.0482   33.4566 N   0  0  0  0  0  0  0  0  0  0  0  0
    9.7504   44.8504   31.6921 C   0  0  0  0  0  0  0  0  0  0  0  0
    8.7945   45.8406   31.0856 C   0  0  0  0  0  0  0  0  0  0  0  0
    7.4079   45.6011   31.1002 C   0  0  0  0  0  0  0  0  0  0  0  0
    9.2829   46.9890   30.4458 C   0  0  0  0  0  0  0  0  0  0  0  0
    6.5286   46.5033   30.4862 C   0  0  0  0  0  0  0  0  0  0  0  0
    8.4034   47.8903   29.8347 C   0  0  0  0  0  0  0  0  0  0  0  0
    7.0140   47.6512   29.8441 C   0  0  0  0  0  0  0  0  0  0  0  0
    6.0766   48.5210   29.2527 O   0  0  0  0  0  0  0  0  0  0  0  0
    6.3321   49.5812   28.3159 C   0  0  2  0  0  0  0  0  0  0  0  0
    7.1509   49.0576   27.1179 C   0  0  0  0  0  0  0  0  0  0  0  0
    6.9312   50.8322   28.9650 C   0  0  0  0  0  0  0  0  0  0  0  0
    7.1804   50.8617   30.3636 C   0  0  0  0  0  0  0  0  0  0  0  0
    7.2408   52.0035   28.1893 C   0  0  0  0  0  0  0  0  0  0  0  0
    7.7989   51.9780   30.9102 C   0  0  0  0  0  0  0  0  0  0  0  0
    7.8871   53.1022   28.7985 C   0  0  0  0  0  0  0  0  0  0  0  0
    6.8774   52.1140   26.8057 N   0  0  0  0  0  0  0  0  0  0  0  0
    8.1542   52.2035   32.2262 O   0  0  0  0  0  0  0  0  0  0  0  0
    8.1471   53.0459   30.1593 C   0  0  0  0  0  0  0  0  0  0  0  0
    7.7255   52.7457   25.9257 O   0  0  0  0  0  0  0  0  0  0  0  0
    5.7069   51.8730   26.4460 O   0  0  0  0  0  0  0  0  0  0  0  0
    8.7683   53.4971   32.3032 C   0  0  0  0  0  0  0  0  0  0  0  0
    8.7422   54.0010   30.9609 O   0  0  0  0  0  0  0  0  0  0  0  0
    8.8113   40.1835   34.2131 O   0  0  0  0  0  0  0  0  0  0  0  0
   11.2397   40.7943   33.3684 O   0  0  0  0  0  0  0  0  0  0  0  0
   10.9125   40.6875   31.9969 C   0  0  0  0  0  0  0  0  0  0  0  0
   11.5169   39.3810   31.4420 C   0  0  0  0  0  0  0  0  0  0  0  0
   12.7500   39.0880   32.0758 O   0  0  0  0  0  0  0  0  0  0  0  0
   10.6043   38.1892   31.6658 C   0  0  0  0  0  0  0  0  0  0  0  0
   12.9395   37.6813   32.0279 C   0  0  0  0  0  0  0  0  0  0  0  0
    9.6353   38.0950   30.6499 O   0  0  0  0  0  0  0  0  0  0  0  0
   11.5804   37.0190   31.6934 C   0  0  0  0  0  0  0  0  0  0  0  0
   13.4851   37.2118   33.3244 N   0  0  0  0  0  0  0  0  0  0  0  0
   11.6118   36.3188   30.4673 O   0  0  0  0  0  0  0  0  0  0  0  0
   14.4801   36.3316   33.5732 C   0  0  0  0  0  0  0  0  0  0  0  0
   13.1139   37.6277   34.5692 C   0  0  0  0  0  0  0  0  0  0  0  0
   15.2076   35.6154   32.6744 N   0  0  0  0  0  0  0  0  0  0  0  0
   14.6756   36.2303   34.9186 C   0  0  0  0  0  0  0  0  0  0  0  0
   13.8215   37.0451   35.5786 N   0  0  0  0  0  0  0  0  0  0  0  0
   16.1642   34.7602   33.1551 C   0  0  0  0  0  0  0  0  0  0  0  0
   15.6526   35.3505   35.4134 C   0  0  0  0  0  0  0  0  0  0  0  0
   16.3796   34.6316   34.5046 N   0  0  0  0  0  0  0  0  0  0  0  0
   15.9000   35.1933   36.8093 N   0  0  0  0  0  0  0  0  0  0  0  0
    9.0096   45.4351   33.6665 H   0  0  0  0  0  0  0  0  0  0  0  0
   11.1130   46.1996   34.4879 H   0  0  0  0  0  0  0  0  0  0  0  0
   11.9347   45.6934   33.0924 H   0  0  0  0  0  0  0  0  0  0  0  0
    9.3515   43.8337   31.4762 H   0  0  0  0  0  0  0  0  0  0  0  0
   10.7308   44.8919   31.1674 H   0  0  0  0  0  0  0  0  0  0  0  0
    7.0109   44.7167   31.5833 H   0  0  0  0  0  0  0  0  0  0  0  0
   10.3465   47.1928   30.4256 H   0  0  0  0  0  0  0  0  0  0  0  0
    5.4642   46.3070   30.5067 H   0  0  0  0  0  0  0  0  0  0  0  0
    8.8171   48.7803   29.3877 H   0  0  0  0  0  0  0  0  0  0  0  0
    5.3354   49.8731   27.9245 H   0  0  0  0  0  0  0  0  0  0  0  0
    8.2395   49.2104   27.2625 H   0  0  0  0  0  0  0  0  0  0  0  0
    6.9575   47.9750   26.9628 H   0  0  0  0  0  0  0  0  0  0  0  0
    6.8569   49.5733   26.1818 H   0  0  0  0  0  0  0  0  0  0  0  0
    6.9110   50.0473   31.0197 H   0  0  0  0  0  0  0  0  0  0  0  0
    8.1428   53.9895   28.2338 H   0  0  0  0  0  0  0  0  0  0  0  0
    9.8164   53.4043   32.6574 H   0  0  0  0  0  0  0  0  0  0  0  0
    8.1828   54.1610   32.9732 H   0  0  0  0  0  0  0  0  0  0  0  0
   11.3811   41.5456   31.4692 H   0  0  0  0  0  0  0  0  0  0  0  0
    9.8216   40.7222   31.7644 H   0  0  0  0  0  0  0  0  0  0  0  0
   11.6985   39.5089   30.3498 H   0  0  0  0  0  0  0  0  0  0  0  0
   10.1109   38.2736   32.6630 H   0  0  0  0  0  0  0  0  0  0  0  0
   13.6783   37.4561   31.2271 H   0  0  0  0  0  0  0  0  0  0  0  0
    9.0020   37.3859   30.9347 H   0  0  0  0  0  0  0  0  0  0  0  0
   11.2808   36.3052   32.4921 H   0  0  0  0  0  0  0  0  0  0  0  0
   11.8819   36.9599   29.7583 H   0  0  0  0  0  0  0  0  0  0  0  0
   12.3303   38.3538   34.7445 H   0  0  0  0  0  0  0  0  0  0  0  0
   16.7563   34.1783   32.4624 H   0  0  0  0  0  0  0  0  0  0  0  0
   15.3532   35.7359   37.5142 H   0  0  0  0  0  0  0  0  0  0  0  0
   16.6348   34.5301   37.1418 H   0  0  0  0  0  0  0  0  0  0  0  0
  1  2  2  0
  1  3  1  0
  3  4  1  0
  4  5  1  0
  6  1  1  0
  7  6  1  0
  6  8  1  0
  8  9  1  0
  9 10  2  0
 11  9  1  0
 10 12  1  0
 13 11  2  0
 12 14  2  0
 14 13  1  0
 14 15  1  0
 15 16  1  0
 16 17  1  0
 16 18  1  0
 18 19  2  0
 20 18  1  0
 19 21  1  0
 22 20  2  0
 20 23  1  0
 21 24  1  0
 21 25  2  0
 25 22  1  0
 23 26  1  0
 23 27  2  0
 24 28  1  0
 25 29  1  0
 28 29  1  0
  4 30  2  0
  4 31  1  0
 32 31  1  0
 32 33  1  0
 33 34  1  0
 33 35  1  0
 34 36  1  0
 35 37  1  0
 35 38  1  0
 38 36  1  0
 36 39  1  0
 38 40  1  0
 41 39  1  0
 42 39  1  0
 43 41  2  0
 41 44  1  0
 45 42  2  0
 46 43  1  0
 44 47  2  0
 44 45  1  0
 48 46  2  0
 48 47  1  0
 47 49  1  0
  6 50  1  1
  7 51  1  0
  7 52  1  0
  8 53  1  0
  8 54  1  0
 10 55  1  0
 11 56  1  0
 12 57  1  0
 13 58  1  0
 16 59  1  6
 17 60  1  0
 17 61  1  0
 17 62  1  0
 19 63  1  0
 22 64  1  0
 28 65  1  0
 28 66  1  0
 32 67  1  0
 32 68  1  0
 33 69  1  0
 35 70  1  0
 36 71  1  0
 37 72  1  0
 38 73  1  0
 40 74  1  0
 42 75  1  0
 46 76  1  0
 49 77  1  0
 49 78  1  0
M  CHG  3   5  -1  23   1  26  -1
M  END
>  <EmbedRMS>  (69) 
0.0824931469483

$$$$

     RDKit          3D

 78 83  0  0  0  0  0  0  0  0999 V2000
   10.2831   43.7665   33.8257 C   0  0  0  0  0  0  0  0  0  0  0  0
   11.4100   43.5933   34.3751 O   0  0  0  0  0  0  0  0  0  0  0  0
    9.3634   42.7258   33.7352 O   0  0  0  0  0  0  0  0  0  0  0  0
    9.8902   41.2270   34.2941 P   0  0  0  0  0  0  0  0  0  0  0  0
   10.3739   41.4561   35.8835 O   0  0  0  0  0  0  0  0  0  0  0  0
    9.9542   45.0699   33.2038 C   0  0  1  0  0  0  0  0  0  0  0  0
   11.0268   46.0327   33.4760 N   0  0  0  0  0  0  0  0  0  0  0  0
    9.7464   44.8488   31.6879 C   0  0  0  0  0  0  0  0  0  0  0  0
    8.7920   45.8416   31.0849 C   0  0  0  0  0  0  0  0  0  0  0  0
    7.4046   45.6001   31.0976 C   0  0  0  0  0  0  0  0  0  0  0  0
    9.2825   46.9877   30.4391 C   0  0  0  0  0  0  0  0  0  0  0  0
    6.5258   46.5002   30.4801 C   0  0  0  0  0  0  0  0  0  0  0  0
    8.4019   47.8880   29.8276 C   0  0  0  0  0  0  0  0  0  0  0  0
    7.0191   47.6557   29.8587 C   0  0  0  0  0  0  0  0  0  0  0  0
    6.1260   48.5503   29.2602 O   0  0  0  0  0  0  0  0  0  0  0  0
    5.7149   49.8013   29.8292 C   0  0  2  0  0  0  0  0  0  0  0  0
    6.8720   50.8026   29.9247 C   0  0  0  0  0  0  0  0  0  0  0  0
    5.0083   49.6053   31.1679 C   0  0  0  0  0  0  0  0  0  0  0  0
    5.7519   49.1466   32.2864 C   0  0  0  0  0  0  0  0  0  0  0  0
    3.5946   49.8066   31.3128 C   0  0  0  0  0  0  0  0  0  0  0  0
    5.0779   48.8680   33.4674 C   0  0  0  0  0  0  0  0  0  0  0  0
    2.9608   49.4937   32.5366 C   0  0  0  0  0  0  0  0  0  0  0  0
    2.7990   50.3464   30.2489 N   0  0  0  0  0  0  0  0  0  0  0  0
    5.5944   48.4001   34.6603 O   0  0  0  0  0  0  0  0  0  0  0  0
    3.7408   49.0287   33.5859 C   0  0  0  0  0  0  0  0  0  0  0  0
    3.1074   51.5821   29.7284 O   0  0  0  0  0  0  0  0  0  0  0  0
    1.6873   49.8421   29.9880 O   0  0  0  0  0  0  0  0  0  0  0  0
    4.5090   48.2591   35.5870 C   0  0  0  0  0  0  0  0  0  0  0  0
    3.3436   48.6720   34.8602 O   0  0  0  0  0  0  0  0  0  0  0  0
    8.8121   40.1852   34.2131 O   0  0  0  0  0  0  0  0  0  0  0  0
   11.2402   40.7952   33.3681 O   0  0  0  0  0  0  0  0  0  0  0  0
   10.9125   40.6877   31.9968 C   0  0  0  0  0  0  0  0  0  0  0  0
   11.5169   39.3811   31.4421 C   0  0  0  0  0  0  0  0  0  0  0  0
   12.7500   39.0881   32.0759 O   0  0  0  0  0  0  0  0  0  0  0  0
   10.6043   38.1893   31.6659 C   0  0  0  0  0  0  0  0  0  0  0  0
   12.9395   37.6814   32.0280 C   0  0  0  0  0  0  0  0  0  0  0  0
    9.6353   38.0951   30.6499 O   0  0  0  0  0  0  0  0  0  0  0  0
   11.5804   37.0191   31.6934 C   0  0  0  0  0  0  0  0  0  0  0  0
   13.4851   37.2119   33.3244 N   0  0  0  0  0  0  0  0  0  0  0  0
   11.6118   36.3189   30.4673 O   0  0  0  0  0  0  0  0  0  0  0  0
   14.4801   36.3316   33.5732 C   0  0  0  0  0  0  0  0  0  0  0  0
   13.1139   37.6277   34.5692 C   0  0  0  0  0  0  0  0  0  0  0  0
   15.2076   35.6154   32.6744 N   0  0  0  0  0  0  0  0  0  0  0  0
   14.6756   36.2303   34.9186 C   0  0  0  0  0  0  0  0  0  0  0  0
   13.8215   37.0451   35.5786 N   0  0  0  0  0  0  0  0  0  0  0  0
   16.1642   34.7602   33.1551 C   0  0  0  0  0  0  0  0  0  0  0  0
   15.6526   35.3505   35.4134 C   0  0  0  0  0  0  0  0  0  0  0  0
   16.3795   34.6316   34.5046 N   0  0  0  0  0  0  0  0  0  0  0  0
   15.9001   35.1933   36.8093 N   0  0  0  0  0  0  0  0  0  0  0  0
    9.0115   45.4322   33.6716 H   0  0  0  0  0  0  0  0  0  0  0  0
   11.8901   45.7666   32.9473 H   0  0  0  0  0  0  0  0  0  0  0  0
   10.7251   46.9692   33.1217 H   0  0  0  0  0  0  0  0  0  0  0  0
   10.7228   44.8825   31.1560 H   0  0  0  0  0  0  0  0  0  0  0  0
    9.3414   43.8337   31.4763 H   0  0  0  0  0  0  0  0  0  0  0  0
    7.0076   44.7150   31.5793 H   0  0  0  0  0  0  0  0  0  0  0  0
   10.3473   47.1819   30.4015 H   0  0  0  0  0  0  0  0  0  0  0  0
    5.4604   46.3090   30.4985 H   0  0  0  0  0  0  0  0  0  0  0  0
    8.7980   48.7571   29.3197 H   0  0  0  0  0  0  0  0  0  0  0  0
    5.0133   50.2335   29.0924 H   0  0  0  0  0  0  0  0  0  0  0  0
    7.6437   50.4739   30.6493 H   0  0  0  0  0  0  0  0  0  0  0  0
    6.4859   51.7926   30.2489 H   0  0  0  0  0  0  0  0  0  0  0  0
    7.3479   50.9215   28.9284 H   0  0  0  0  0  0  0  0  0  0  0  0
    6.8201   48.9870   32.2389 H   0  0  0  0  0  0  0  0  0  0  0  0
    1.8954   49.6320   32.6699 H   0  0  0  0  0  0  0  0  0  0  0  0
    4.6663   48.9188   36.4659 H   0  0  0  0  0  0  0  0  0  0  0  0
    4.4085   47.1993   35.9022 H   0  0  0  0  0  0  0  0  0  0  0  0
   11.3808   41.5457   31.4685 H   0  0  0  0  0  0  0  0  0  0  0  0
    9.8216   40.7222   31.7646 H   0  0  0  0  0  0  0  0  0  0  0  0
   11.6986   39.5089   30.3499 H   0  0  0  0  0  0  0  0  0  0  0  0
   10.1109   38.2737   32.6630 H   0  0  0  0  0  0  0  0  0  0  0  0
   13.6783   37.4562   31.2271 H   0  0  0  0  0  0  0  0  0  0  0  0
    9.0020   37.3860   30.9348 H   0  0  0  0  0  0  0  0  0  0  0  0
   11.2807   36.3053   32.4921 H   0  0  0  0  0  0  0  0  0  0  0  0
   11.8818   36.9600   29.7584 H   0  0  0  0  0  0  0  0  0  0  0  0
   12.3303   38.3538   34.7445 H   0  0  0  0  0  0  0  0  0  0  0  0
   16.7564   34.1783   32.4624 H   0  0  0  0  0  0  0  0  0  0  0  0
   15.3532   35.7359   37.5142 H   0  0  0  0  0  0  0  0  0  0  0  0
   16.6348   34.5301   37.1418 H   0  0  0  0  0  0  0  0  0  0  0  0
  1  2  2  0
  1  3  1  0
  3  4  1  0
  4  5  1  0
  6  1  1  0
  7  6  1  0
  6  8  1  0
  8  9  1  0
  9 10  2  0
 11  9  1  0
 10 12  1  0
 13 11  2  0
 12 14  2  0
 14 13  1  0
 14 15  1  0
 15 16  1  0
 16 17  1  0
 16 18  1  0
 18 19  2  0
 20 18  1  0
 19 21  1  0
 22 20  2  0
 20 23  1  0
 21 24  1  0
 21 25  2  0
 25 22  1  0
 23 26  1  0
 23 27  2  0
 24 28  1  0
 25 29  1  0
 28 29  1  0
  4 30  2  0
  4 31  1  0
 32 31  1  0
 32 33  1  0
 33 34  1  0
 33 35  1  0
 34 36  1  0
 35 37  1  0
 35 38  1  0
 38 36  1  0
 36 39  1  0
 38 40  1  0
 41 39  1  0
 42 39  1  0
 43 41  2  0
 41 44  1  0
 45 42  2  0
 46 43  1  0
 44 47  2  0
 44 45  1  0
 48 46  2  0
 48 47  1  0
 47 49  1  0
  6 50  1  1
  7 51  1  0
  7 52  1  0
  8 53  1  0
  8 54  1  0
 10 55  1  0
 11 56  1  0
 12 57  1  0
 13 58  1  0
 16 59  1  6
 17 60  1  0
 17 61  1  0
 17 62  1  0
 19 63  1  0
 22 64  1  0
 28 65  1  0
 28 66  1  0
 32 67  1  0
 32 68  1  0
 33 69  1  0
 35 70  1  0
 36 71  1  0
 37 72  1  0
 38 73  1  0
 40 74  1  0
 42 75  1  0
 46 76  1  0
 49 77  1  0
 49 78  1  0
M  CHG  3   5  -1  23   1  26  -1
M  END
>  <EmbedRMS>  (70) 
0.0816645542315

$$$$

     RDKit          3D

 78 83  0  0  0  0  0  0  0  0999 V2000
   10.2838   43.7626   33.8276 C   0  0  0  0  0  0  0  0  0  0  0  0
   11.4103   43.5863   34.3766 O   0  0  0  0  0  0  0  0  0  0  0  0
    9.3631   42.7236   33.7353 O   0  0  0  0  0  0  0  0  0  0  0  0
    9.8898   41.2247   34.2935 P   0  0  0  0  0  0  0  0  0  0  0  0
   10.3734   41.4543   35.8829 O   0  0  0  0  0  0  0  0  0  0  0  0
    9.9548   45.0699   33.2063 C   0  0  1  0  0  0  0  0  0  0  0  0
   11.0198   46.0480   33.4567 N   0  0  0  0  0  0  0  0  0  0  0  0
    9.7501   44.8507   31.6923 C   0  0  0  0  0  0  0  0  0  0  0  0
    8.7942   45.8417   31.0868 C   0  0  0  0  0  0  0  0  0  0  0  0
    7.4073   45.6013   31.1004 C   0  0  0  0  0  0  0  0  0  0  0  0
    9.2832   46.9891   30.4451 C   0  0  0  0  0  0  0  0  0  0  0  0
    6.5279   46.5023   30.4847 C   0  0  0  0  0  0  0  0  0  0  0  0
    8.4038   47.8903   29.8334 C   0  0  0  0  0  0  0  0  0  0  0  0
    7.0147   47.6509   29.8460 C   0  0  0  0  0  0  0  0  0  0  0  0
    6.0894   48.5174   29.2409 O   0  0  0  0  0  0  0  0  0  0  0  0
    6.4228   49.6794   28.4765 C   0  0  2  0  0  0  0  0  0  0  0  0
    5.1432   50.4638   28.1918 C   0  0  0  0  0  0  0  0  0  0  0  0
    7.0920   49.2856   27.1701 C   0  0  0  0  0  0  0  0  0  0  0  0
    6.5555   48.1991   26.4364 C   0  0  0  0  0  0  0  0  0  0  0  0
    8.2741   49.9412   26.6889 C   0  0  0  0  0  0  0  0  0  0  0  0
    7.2196   47.7791   25.2917 C   0  0  0  0  0  0  0  0  0  0  0  0
    8.9159   49.4579   25.5263 C   0  0  0  0  0  0  0  0  0  0  0  0
    8.8241   51.0920   27.3487 N   0  0  0  0  0  0  0  0  0  0  0  0
    6.8894   46.7442   24.4380 O   0  0  0  0  0  0  0  0  0  0  0  0
    8.3528   48.3781   24.8591 C   0  0  0  0  0  0  0  0  0  0  0  0
   10.1876   51.2715   27.3856 O   0  0  0  0  0  0  0  0  0  0  0  0
    8.0832   52.0405   27.6791 O   0  0  0  0  0  0  0  0  0  0  0  0
    7.8801   46.6922   23.4024 C   0  0  0  0  0  0  0  0  0  0  0  0
    8.7953   47.7529   23.7092 O   0  0  0  0  0  0  0  0  0  0  0  0
    8.8115   40.1834   34.2126 O   0  0  0  0  0  0  0  0  0  0  0  0
   11.2402   40.7936   33.3673 O   0  0  0  0  0  0  0  0  0  0  0  0
   10.9134   40.6864   31.9955 C   0  0  0  0  0  0  0  0  0  0  0  0
   11.5166   39.3786   31.4404 C   0  0  0  0  0  0  0  0  0  0  0  0
   12.7486   39.0848   32.0734 O   0  0  0  0  0  0  0  0  0  0  0  0
   10.6039   38.1883   31.6669 C   0  0  0  0  0  0  0  0  0  0  0  0
   12.9329   37.6775   32.0284 C   0  0  0  0  0  0  0  0  0  0  0  0
    9.6373   38.0938   30.6484 O   0  0  0  0  0  0  0  0  0  0  0  0
   11.5737   37.0140   31.7055 C   0  0  0  0  0  0  0  0  0  0  0  0
   13.4853   37.2120   33.3238 N   0  0  0  0  0  0  0  0  0  0  0  0
   11.6210   36.3378   30.4683 O   0  0  0  0  0  0  0  0  0  0  0  0
   14.4804   36.3319   33.5726 C   0  0  0  0  0  0  0  0  0  0  0  0
   13.1141   37.6275   34.5689 C   0  0  0  0  0  0  0  0  0  0  0  0
   15.2076   35.6152   32.6740 N   0  0  0  0  0  0  0  0  0  0  0  0
   14.6761   36.2306   34.9181 C   0  0  0  0  0  0  0  0  0  0  0  0
   13.8218   37.0451   35.5783 N   0  0  0  0  0  0  0  0  0  0  0  0
   16.1642   34.7600   33.1548 C   0  0  0  0  0  0  0  0  0  0  0  0
   15.6528   35.3507   35.4131 C   0  0  0  0  0  0  0  0  0  0  0  0
   16.3795   34.6315   34.5043 N   0  0  0  0  0  0  0  0  0  0  0  0
   15.9001   35.1933   36.8090 N   0  0  0  0  0  0  0  0  0  0  0  0
    9.0099   45.4349   33.6670 H   0  0  0  0  0  0  0  0  0  0  0  0
   11.9348   45.6932   33.0922 H   0  0  0  0  0  0  0  0  0  0  0  0
   11.1135   46.1992   34.4880 H   0  0  0  0  0  0  0  0  0  0  0  0
   10.7303   44.8921   31.1674 H   0  0  0  0  0  0  0  0  0  0  0  0
    9.3507   43.8342   31.4762 H   0  0  0  0  0  0  0  0  0  0  0  0
    7.0107   44.7162   31.5825 H   0  0  0  0  0  0  0  0  0  0  0  0
   10.3475   47.1886   30.4175 H   0  0  0  0  0  0  0  0  0  0  0  0
    5.4636   46.3046   30.5011 H   0  0  0  0  0  0  0  0  0  0  0  0
    8.8171   48.7667   29.3557 H   0  0  0  0  0  0  0  0  0  0  0  0
    7.0782   50.3233   29.0981 H   0  0  0  0  0  0  0  0  0  0  0  0
    4.4172   49.8383   27.6297 H   0  0  0  0  0  0  0  0  0  0  0  0
    5.3718   51.3745   27.5983 H   0  0  0  0  0  0  0  0  0  0  0  0
    4.6743   50.7758   29.1491 H   0  0  0  0  0  0  0  0  0  0  0  0
    5.6611   47.6829   26.7618 H   0  0  0  0  0  0  0  0  0  0  0  0
    9.8124   49.9263   25.1411 H   0  0  0  0  0  0  0  0  0  0  0  0
    7.4098   46.8664   22.4119 H   0  0  0  0  0  0  0  0  0  0  0  0
    8.4060   45.7146   23.4227 H   0  0  0  0  0  0  0  0  0  0  0  0
   11.3831   41.5437   31.4675 H   0  0  0  0  0  0  0  0  0  0  0  0
    9.8226   40.7225   31.7629 H   0  0  0  0  0  0  0  0  0  0  0  0
   11.6978   39.5037   30.3478 H   0  0  0  0  0  0  0  0  0  0  0  0
   10.1084   38.2786   32.6626 H   0  0  0  0  0  0  0  0  0  0  0  0
   13.6638   37.4471   31.2214 H   0  0  0  0  0  0  0  0  0  0  0  0
    8.9763   37.4190   30.9532 H   0  0  0  0  0  0  0  0  0  0  0  0
   11.2821   36.3053   32.5171 H   0  0  0  0  0  0  0  0  0  0  0  0
   10.8658   35.6935   30.4652 H   0  0  0  0  0  0  0  0  0  0  0  0
   12.3293   38.3523   34.7444 H   0  0  0  0  0  0  0  0  0  0  0  0
   16.7561   34.1778   32.4621 H   0  0  0  0  0  0  0  0  0  0  0  0
   15.3533   35.7361   37.5138 H   0  0  0  0  0  0  0  0  0  0  0  0
   16.6345   34.5300   37.1416 H   0  0  0  0  0  0  0  0  0  0  0  0
  1  2  2  0
  1  3  1  0
  3  4  1  0
  4  5  1  0
  6  1  1  0
  7  6  1  0
  6  8  1  0
  8  9  1  0
  9 10  2  0
 11  9  1  0
 10 12  1  0
 13 11  2  0
 12 14  2  0
 14 13  1  0
 14 15  1  0
 15 16  1  0
 16 17  1  0
 16 18  1  0
 18 19  2  0
 20 18  1  0
 19 21  1  0
 22 20  2  0
 20 23  1  0
 21 24  1  0
 21 25  2  0
 25 22  1  0
 23 26  1  0
 23 27  2  0
 24 28  1  0
 25 29  1  0
 28 29  1  0
  4 30  2  0
  4 31  1  0
 32 31  1  0
 32 33  1  0
 33 34  1  0
 33 35  1  0
 34 36  1  0
 35 37  1  0
 35 38  1  0
 38 36  1  0
 36 39  1  0
 38 40  1  0
 41 39  1  0
 42 39  1  0
 43 41  2  0
 41 44  1  0
 45 42  2  0
 46 43  1  0
 44 47  2  0
 44 45  1  0
 48 46  2  0
 48 47  1  0
 47 49  1  0
  6 50  1  1
  7 51  1  0
  7 52  1  0
  8 53  1  0
  8 54  1  0
 10 55  1  0
 11 56  1  0
 12 57  1  0
 13 58  1  0
 16 59  1  1
 17 60  1  0
 17 61  1  0
 17 62  1  0
 19 63  1  0
 22 64  1  0
 28 65  1  0
 28 66  1  0
 32 67  1  0
 32 68  1  0
 33 69  1  0
 35 70  1  0
 36 71  1  0
 37 72  1  0
 38 73  1  0
 40 74  1  0
 42 75  1  0
 46 76  1  0
 49 77  1  0
 49 78  1  0
M  CHG  3   5  -1  23   1  26  -1
M  END
>  <EmbedRMS>  (71) 
0.0834604585739

$$$$

     RDKit          3D

 78 83  0  0  0  0  0  0  0  0999 V2000
   10.2837   43.7629   33.8276 C   0  0  0  0  0  0  0  0  0  0  0  0
   11.4101   43.5867   34.3766 O   0  0  0  0  0  0  0  0  0  0  0  0
    9.3632   42.7235   33.7351 O   0  0  0  0  0  0  0  0  0  0  0  0
    9.8899   41.2248   34.2940 P   0  0  0  0  0  0  0  0  0  0  0  0
   10.3723   41.4546   35.8836 O   0  0  0  0  0  0  0  0  0  0  0  0
    9.9543   45.0703   33.2065 C   0  0  1  0  0  0  0  0  0  0  0  0
   11.0192   46.0485   33.4572 N   0  0  0  0  0  0  0  0  0  0  0  0
    9.7500   44.8516   31.6924 C   0  0  0  0  0  0  0  0  0  0  0  0
    8.7940   45.8424   31.0871 C   0  0  0  0  0  0  0  0  0  0  0  0
    7.4063   45.5992   31.0987 C   0  0  0  0  0  0  0  0  0  0  0  0
    9.2835   46.9894   30.4420 C   0  0  0  0  0  0  0  0  0  0  0  0
    6.5263   46.4990   30.4816 C   0  0  0  0  0  0  0  0  0  0  0  0
    8.4019   47.8881   29.8290 C   0  0  0  0  0  0  0  0  0  0  0  0
    7.0211   47.6541   29.8576 C   0  0  0  0  0  0  0  0  0  0  0  0
    6.1489   48.5559   29.2429 O   0  0  0  0  0  0  0  0  0  0  0  0
    5.4184   49.5647   29.9480 C   0  0  2  0  0  0  0  0  0  0  0  0
    6.3363   50.7137   30.3850 C   0  0  0  0  0  0  0  0  0  0  0  0
    4.5299   48.9650   31.0372 C   0  0  0  0  0  0  0  0  0  0  0  0
    3.2770   48.4508   30.6192 C   0  0  0  0  0  0  0  0  0  0  0  0
    4.8818   48.8747   32.4296 C   0  0  0  0  0  0  0  0  0  0  0  0
    2.4233   47.9080   31.5703 C   0  0  0  0  0  0  0  0  0  0  0  0
    3.9671   48.3253   33.3532 C   0  0  0  0  0  0  0  0  0  0  0  0
    6.1448   49.3179   32.9295 N   0  0  0  0  0  0  0  0  0  0  0  0
    1.1678   47.3617   31.3855 O   0  0  0  0  0  0  0  0  0  0  0  0
    2.7522   47.8515   32.8801 C   0  0  0  0  0  0  0  0  0  0  0  0
    6.1772   50.3146   33.8763 O   0  0  0  0  0  0  0  0  0  0  0  0
    7.1529   48.5999   32.7744 O   0  0  0  0  0  0  0  0  0  0  0  0
    0.6784   46.9357   32.6645 C   0  0  0  0  0  0  0  0  0  0  0  0
    1.7216   47.2673   33.5910 O   0  0  0  0  0  0  0  0  0  0  0  0
    8.8119   40.1832   34.2120 O   0  0  0  0  0  0  0  0  0  0  0  0
   11.2415   40.7933   33.3699 O   0  0  0  0  0  0  0  0  0  0  0  0
   10.9186   40.6909   31.9972 C   0  0  0  0  0  0  0  0  0  0  0  0
   11.5172   39.3814   31.4407 C   0  0  0  0  0  0  0  0  0  0  0  0
   12.7493   39.0855   32.0728 O   0  0  0  0  0  0  0  0  0  0  0  0
   10.6023   38.1907   31.6665 C   0  0  0  0  0  0  0  0  0  0  0  0
   12.9319   37.6781   32.0281 C   0  0  0  0  0  0  0  0  0  0  0  0
    9.6392   38.0797   30.6452 O   0  0  0  0  0  0  0  0  0  0  0  0
   11.5715   37.0165   31.7056 C   0  0  0  0  0  0  0  0  0  0  0  0
   13.4846   37.2121   33.3235 N   0  0  0  0  0  0  0  0  0  0  0  0
   11.6187   36.3383   30.4694 O   0  0  0  0  0  0  0  0  0  0  0  0
   14.4801   36.3321   33.5724 C   0  0  0  0  0  0  0  0  0  0  0  0
   13.1137   37.6275   34.5687 C   0  0  0  0  0  0  0  0  0  0  0  0
   15.2073   35.6153   32.6738 N   0  0  0  0  0  0  0  0  0  0  0  0
   14.6759   36.2308   34.9179 C   0  0  0  0  0  0  0  0  0  0  0  0
   13.8216   37.0452   35.5781 N   0  0  0  0  0  0  0  0  0  0  0  0
   16.1640   34.7602   33.1546 C   0  0  0  0  0  0  0  0  0  0  0  0
   15.6526   35.3508   35.4129 C   0  0  0  0  0  0  0  0  0  0  0  0
   16.3794   34.6317   34.5041 N   0  0  0  0  0  0  0  0  0  0  0  0
   15.8999   35.1935   36.8088 N   0  0  0  0  0  0  0  0  0  0  0  0
    9.0092   45.4353   33.6670 H   0  0  0  0  0  0  0  0  0  0  0  0
   11.9344   45.6938   33.0932 H   0  0  0  0  0  0  0  0  0  0  0  0
   11.1123   46.2000   34.4885 H   0  0  0  0  0  0  0  0  0  0  0  0
   10.7304   44.8936   31.1678 H   0  0  0  0  0  0  0  0  0  0  0  0
    9.3512   43.8350   31.4760 H   0  0  0  0  0  0  0  0  0  0  0  0
    7.0104   44.7124   31.5778 H   0  0  0  0  0  0  0  0  0  0  0  0
   10.3476   47.1883   30.4106 H   0  0  0  0  0  0  0  0  0  0  0  0
    5.4632   46.2969   30.4895 H   0  0  0  0  0  0  0  0  0  0  0  0
    8.7909   48.7699   29.3361 H   0  0  0  0  0  0  0  0  0  0  0  0
    4.7364   50.0324   29.2032 H   0  0  0  0  0  0  0  0  0  0  0  0
    5.7904   51.4168   31.0495 H   0  0  0  0  0  0  0  0  0  0  0  0
    7.2471   50.3430   30.8934 H   0  0  0  0  0  0  0  0  0  0  0  0
    6.6738   51.2769   29.4889 H   0  0  0  0  0  0  0  0  0  0  0  0
    2.9742   48.4757   29.5797 H   0  0  0  0  0  0  0  0  0  0  0  0
    4.2091   48.2540   34.4060 H   0  0  0  0  0  0  0  0  0  0  0  0
    0.5019   45.8396   32.6625 H   0  0  0  0  0  0  0  0  0  0  0  0
   -0.2516   47.4844   32.9222 H   0  0  0  0  0  0  0  0  0  0  0  0
    9.8300   40.7410   31.7610 H   0  0  0  0  0  0  0  0  0  0  0  0
   11.3971   41.5459   31.4734 H   0  0  0  0  0  0  0  0  0  0  0  0
   11.6974   39.5067   30.3480 H   0  0  0  0  0  0  0  0  0  0  0  0
   10.1076   38.2647   32.6645 H   0  0  0  0  0  0  0  0  0  0  0  0
   13.6621   37.4467   31.2208 H   0  0  0  0  0  0  0  0  0  0  0  0
    8.8974   38.6943   30.8831 H   0  0  0  0  0  0  0  0  0  0  0  0
   11.2806   36.3073   32.5170 H   0  0  0  0  0  0  0  0  0  0  0  0
   10.8493   35.7110   30.4585 H   0  0  0  0  0  0  0  0  0  0  0  0
   12.3290   38.3524   34.7444 H   0  0  0  0  0  0  0  0  0  0  0  0
   16.7559   34.1780   32.4619 H   0  0  0  0  0  0  0  0  0  0  0  0
   15.3531   35.7362   37.5137 H   0  0  0  0  0  0  0  0  0  0  0  0
   16.6344   34.5301   37.1414 H   0  0  0  0  0  0  0  0  0  0  0  0
  1  2  2  0
  1  3  1  0
  3  4  1  0
  4  5  1  0
  6  1  1  0
  7  6  1  0
  6  8  1  0
  8  9  1  0
  9 10  2  0
 11  9  1  0
 10 12  1  0
 13 11  2  0
 12 14  2  0
 14 13  1  0
 14 15  1  0
 15 16  1  0
 16 17  1  0
 16 18  1  0
 18 19  2  0
 20 18  1  0
 19 21  1  0
 22 20  2  0
 20 23  1  0
 21 24  1  0
 21 25  2  0
 25 22  1  0
 23 26  1  0
 23 27  2  0
 24 28  1  0
 25 29  1  0
 28 29  1  0
  4 30  2  0
  4 31  1  0
 32 31  1  0
 32 33  1  0
 33 34  1  0
 33 35  1  0
 34 36  1  0
 35 37  1  0
 35 38  1  0
 38 36  1  0
 36 39  1  0
 38 40  1  0
 41 39  1  0
 42 39  1  0
 43 41  2  0
 41 44  1  0
 45 42  2  0
 46 43  1  0
 44 47  2  0
 44 45  1  0
 48 46  2  0
 48 47  1  0
 47 49  1  0
  6 50  1  1
  7 51  1  0
  7 52  1  0
  8 53  1  0
  8 54  1  0
 10 55  1  0
 11 56  1  0
 12 57  1  0
 13 58  1  0
 16 59  1  6
 17 60  1  0
 17 61  1  0
 17 62  1  0
 19 63  1  0
 22 64  1  0
 28 65  1  0
 28 66  1  0
 32 67  1  0
 32 68  1  0
 33 69  1  0
 35 70  1  0
 36 71  1  0
 37 72  1  0
 38 73  1  0
 40 74  1  0
 42 75  1  0
 46 76  1  0
 49 77  1  0
 49 78  1  0
M  CHG  3   5  -1  23   1  26  -1
M  END
>  <EmbedRMS>  (72) 
0.0839237748303

$$$$

     RDKit          3D

 78 83  0  0  0  0  0  0  0  0999 V2000
   10.2836   43.7661   33.8257 C   0  0  0  0  0  0  0  0  0  0  0  0
   11.4103   43.5930   34.3753 O   0  0  0  0  0  0  0  0  0  0  0  0
    9.3641   42.7252   33.7347 O   0  0  0  0  0  0  0  0  0  0  0  0
    9.8908   41.2264   34.2939 P   0  0  0  0  0  0  0  0  0  0  0  0
   10.3732   41.4558   35.8836 O   0  0  0  0  0  0  0  0  0  0  0  0
    9.9547   45.0694   33.2037 C   0  0  1  0  0  0  0  0  0  0  0  0
   11.0273   46.0321   33.4757 N   0  0  0  0  0  0  0  0  0  0  0  0
    9.7465   44.8480   31.6878 C   0  0  0  0  0  0  0  0  0  0  0  0
    8.7923   45.8409   31.0848 C   0  0  0  0  0  0  0  0  0  0  0  0
    7.4057   45.6014   31.0988 C   0  0  0  0  0  0  0  0  0  0  0  0
    9.2821   46.9875   30.4422 C   0  0  0  0  0  0  0  0  0  0  0  0
    6.5272   46.5027   30.4832 C   0  0  0  0  0  0  0  0  0  0  0  0
    8.4034   47.8897   29.8307 C   0  0  0  0  0  0  0  0  0  0  0  0
    7.0134   47.6541   29.8486 C   0  0  0  0  0  0  0  0  0  0  0  0
    6.0826   48.5184   29.2489 O   0  0  0  0  0  0  0  0  0  0  0  0
    6.3683   49.7911   28.6630 C   0  0  2  0  0  0  0  0  0  0  0  0
    6.6737   50.8408   29.7382 C   0  0  0  0  0  0  0  0  0  0  0  0
    5.2134   50.2559   27.7915 C   0  0  0  0  0  0  0  0  0  0  0  0
    5.5295   51.0699   26.6759 C   0  0  0  0  0  0  0  0  0  0  0  0
    3.8410   49.8909   28.0228 C   0  0  0  0  0  0  0  0  0  0  0  0
    4.5056   51.4639   25.8252 C   0  0  0  0  0  0  0  0  0  0  0  0
    2.8447   50.3103   27.1110 C   0  0  0  0  0  0  0  0  0  0  0  0
    3.4387   49.1106   29.1593 N   0  0  0  0  0  0  0  0  0  0  0  0
    4.5865   52.2426   24.6867 O   0  0  0  0  0  0  0  0  0  0  0  0
    3.2208   51.0965   26.0311 C   0  0  0  0  0  0  0  0  0  0  0  0
    3.8085   49.4918   30.4275 O   0  0  0  0  0  0  0  0  0  0  0  0
    2.5720   48.2218   29.0274 O   0  0  0  0  0  0  0  0  0  0  0  0
    3.2651   52.3715   24.1444 C   0  0  0  0  0  0  0  0  0  0  0  0
    2.4237   51.6246   25.0337 O   0  0  0  0  0  0  0  0  0  0  0  0
    8.8127   40.1847   34.2122 O   0  0  0  0  0  0  0  0  0  0  0  0
   11.2421   40.7941   33.3697 O   0  0  0  0  0  0  0  0  0  0  0  0
   10.9187   40.6911   31.9971 C   0  0  0  0  0  0  0  0  0  0  0  0
   11.5172   39.3815   31.4407 C   0  0  0  0  0  0  0  0  0  0  0  0
   12.7493   39.0855   32.0728 O   0  0  0  0  0  0  0  0  0  0  0  0
   10.6023   38.1908   31.6665 C   0  0  0  0  0  0  0  0  0  0  0  0
   12.9319   37.6781   32.0281 C   0  0  0  0  0  0  0  0  0  0  0  0
    9.6392   38.0798   30.6452 O   0  0  0  0  0  0  0  0  0  0  0  0
   11.5715   37.0165   31.7056 C   0  0  0  0  0  0  0  0  0  0  0  0
   13.4847   37.2121   33.3235 N   0  0  0  0  0  0  0  0  0  0  0  0
   11.6187   36.3384   30.4695 O   0  0  0  0  0  0  0  0  0  0  0  0
   14.4801   36.3321   33.5724 C   0  0  0  0  0  0  0  0  0  0  0  0
   13.1137   37.6276   34.5687 C   0  0  0  0  0  0  0  0  0  0  0  0
   15.2073   35.6153   32.6738 N   0  0  0  0  0  0  0  0  0  0  0  0
   14.6759   36.2308   34.9179 C   0  0  0  0  0  0  0  0  0  0  0  0
   13.8216   37.0452   35.5781 N   0  0  0  0  0  0  0  0  0  0  0  0
   16.1640   34.7602   33.1546 C   0  0  0  0  0  0  0  0  0  0  0  0
   15.6526   35.3508   35.4129 C   0  0  0  0  0  0  0  0  0  0  0  0
   16.3794   34.6317   34.5041 N   0  0  0  0  0  0  0  0  0  0  0  0
   15.8999   35.1935   36.8088 N   0  0  0  0  0  0  0  0  0  0  0  0
    9.0121   45.4316   33.6716 H   0  0  0  0  0  0  0  0  0  0  0  0
   11.8906   45.7658   32.9470 H   0  0  0  0  0  0  0  0  0  0  0  0
   10.7259   46.9687   33.1214 H   0  0  0  0  0  0  0  0  0  0  0  0
    9.3413   43.8329   31.4764 H   0  0  0  0  0  0  0  0  0  0  0  0
   10.7229   44.8814   31.1558 H   0  0  0  0  0  0  0  0  0  0  0  0
    7.0084   44.7164   31.5805 H   0  0  0  0  0  0  0  0  0  0  0  0
   10.3469   47.1835   30.4104 H   0  0  0  0  0  0  0  0  0  0  0  0
    5.4625   46.3062   30.5008 H   0  0  0  0  0  0  0  0  0  0  0  0
    8.8213   48.7589   29.3444 H   0  0  0  0  0  0  0  0  0  0  0  0
    7.2613   49.6811   28.0094 H   0  0  0  0  0  0  0  0  0  0  0  0
    7.4982   50.5004   30.3969 H   0  0  0  0  0  0  0  0  0  0  0  0
    6.9866   51.7929   29.2588 H   0  0  0  0  0  0  0  0  0  0  0  0
    5.7837   51.0407   30.3678 H   0  0  0  0  0  0  0  0  0  0  0  0
    6.5475   51.3773   26.4706 H   0  0  0  0  0  0  0  0  0  0  0  0
    1.8043   50.0478   27.2544 H   0  0  0  0  0  0  0  0  0  0  0  0
    3.2249   51.9372   23.1235 H   0  0  0  0  0  0  0  0  0  0  0  0
    2.9577   53.4382   24.1315 H   0  0  0  0  0  0  0  0  0  0  0  0
   11.3968   41.5460   31.4729 H   0  0  0  0  0  0  0  0  0  0  0  0
    9.8299   40.7410   31.7613 H   0  0  0  0  0  0  0  0  0  0  0  0
   11.6974   39.5067   30.3481 H   0  0  0  0  0  0  0  0  0  0  0  0
   10.1076   38.2648   32.6645 H   0  0  0  0  0  0  0  0  0  0  0  0
   13.6621   37.4467   31.2209 H   0  0  0  0  0  0  0  0  0  0  0  0
    8.8975   38.6944   30.8831 H   0  0  0  0  0  0  0  0  0  0  0  0
   11.2806   36.3073   32.5170 H   0  0  0  0  0  0  0  0  0  0  0  0
   10.8492   35.7110   30.4586 H   0  0  0  0  0  0  0  0  0  0  0  0
   12.3290   38.3524   34.7444 H   0  0  0  0  0  0  0  0  0  0  0  0
   16.7559   34.1780   32.4619 H   0  0  0  0  0  0  0  0  0  0  0  0
   16.6344   34.5301   37.1414 H   0  0  0  0  0  0  0  0  0  0  0  0
   15.3531   35.7363   37.5137 H   0  0  0  0  0  0  0  0  0  0  0  0
  1  2  2  0
  1  3  1  0
  3  4  1  0
  4  5  1  0
  6  1  1  0
  7  6  1  0
  6  8  1  0
  8  9  1  0
  9 10  2  0
 11  9  1  0
 10 12  1  0
 13 11  2  0
 12 14  2  0
 14 13  1  0
 14 15  1  0
 15 16  1  0
 16 17  1  0
 16 18  1  0
 18 19  2  0
 20 18  1  0
 19 21  1  0
 22 20  2  0
 20 23  1  0
 21 24  1  0
 21 25  2  0
 25 22  1  0
 23 26  1  0
 23 27  2  0
 24 28  1  0
 25 29  1  0
 28 29  1  0
  4 30  2  0
  4 31  1  0
 32 31  1  0
 32 33  1  0
 33 34  1  0
 33 35  1  0
 34 36  1  0
 35 37  1  0
 35 38  1  0
 38 36  1  0
 36 39  1  0
 38 40  1  0
 41 39  1  0
 42 39  1  0
 43 41  2  0
 41 44  1  0
 45 42  2  0
 46 43  1  0
 44 47  2  0
 44 45  1  0
 48 46  2  0
 48 47  1  0
 47 49  1  0
  6 50  1  1
  7 51  1  0
  7 52  1  0
  8 53  1  0
  8 54  1  0
 10 55  1  0
 11 56  1  0
 12 57  1  0
 13 58  1  0
 16 59  1  6
 17 60  1  0
 17 61  1  0
 17 62  1  0
 19 63  1  0
 22 64  1  0
 28 65  1  0
 28 66  1  0
 32 67  1  0
 32 68  1  0
 33 69  1  0
 35 70  1  0
 36 71  1  0
 37 72  1  0
 38 73  1  0
 40 74  1  0
 42 75  1  0
 46 76  1  0
 49 77  1  0
 49 78  1  0
M  CHG  3   5  -1  23   1  26  -1
M  END
>  <EmbedRMS>  (73) 
0.0829335063166

$$$$

     RDKit          3D

 78 83  0  0  0  0  0  0  0  0999 V2000
   10.2836   43.7660   33.8256 C   0  0  0  0  0  0  0  0  0  0  0  0
   11.4103   43.5929   34.3753 O   0  0  0  0  0  0  0  0  0  0  0  0
    9.3640   42.7253   33.7347 O   0  0  0  0  0  0  0  0  0  0  0  0
    9.8907   41.2265   34.2938 P   0  0  0  0  0  0  0  0  0  0  0  0
   10.3733   41.4558   35.8835 O   0  0  0  0  0  0  0  0  0  0  0  0
    9.9549   45.0694   33.2038 C   0  0  1  0  0  0  0  0  0  0  0  0
   11.0275   46.0322   33.4761 N   0  0  0  0  0  0  0  0  0  0  0  0
    9.7470   44.8486   31.6879 C   0  0  0  0  0  0  0  0  0  0  0  0
    8.7925   45.8417   31.0857 C   0  0  0  0  0  0  0  0  0  0  0  0
    7.4063   45.6008   31.0985 C   0  0  0  0  0  0  0  0  0  0  0  0
    9.2815   46.9875   30.4419 C   0  0  0  0  0  0  0  0  0  0  0  0
    6.5252   46.5002   30.4833 C   0  0  0  0  0  0  0  0  0  0  0  0
    8.4002   47.8864   29.8305 C   0  0  0  0  0  0  0  0  0  0  0  0
    7.0174   47.6592   29.8481 C   0  0  0  0  0  0  0  0  0  0  0  0
    6.1871   48.6005   29.2082 O   0  0  0  0  0  0  0  0  0  0  0  0
    4.7615   48.7388   29.3310 C   0  0  2  0  0  0  0  0  0  0  0  0
    4.3565   48.8466   30.8156 C   0  0  0  0  0  0  0  0  0  0  0  0
    3.9810   47.6704   28.5600 C   0  0  0  0  0  0  0  0  0  0  0  0
    4.6740   46.6837   27.8081 C   0  0  0  0  0  0  0  0  0  0  0  0
    2.5434   47.6459   28.5618 C   0  0  0  0  0  0  0  0  0  0  0  0
    3.9433   45.6823   27.1832 C   0  0  0  0  0  0  0  0  0  0  0  0
    1.8550   46.5904   27.9212 C   0  0  0  0  0  0  0  0  0  0  0  0
    1.7726   48.6955   29.1644 N   0  0  0  0  0  0  0  0  0  0  0  0
    4.4105   44.6216   26.4309 O   0  0  0  0  0  0  0  0  0  0  0  0
    2.5946   45.6315   27.2460 C   0  0  0  0  0  0  0  0  0  0  0  0
    2.0246   50.0074   28.8365 O   0  0  0  0  0  0  0  0  0  0  0  0
    0.7291   48.4208   29.7922 O   0  0  0  0  0  0  0  0  0  0  0  0
    3.2792   43.8546   25.9971 C   0  0  0  0  0  0  0  0  0  0  0  0
    2.1392   44.5354   26.5388 O   0  0  0  0  0  0  0  0  0  0  0  0
    8.8126   40.1848   34.2122 O   0  0  0  0  0  0  0  0  0  0  0  0
   11.2418   40.7942   33.3694 O   0  0  0  0  0  0  0  0  0  0  0  0
   10.9179   40.6904   31.9970 C   0  0  0  0  0  0  0  0  0  0  0  0
   11.5181   39.3814   31.4408 C   0  0  0  0  0  0  0  0  0  0  0  0
   12.7497   39.0870   32.0745 O   0  0  0  0  0  0  0  0  0  0  0  0
   10.6045   38.1892   31.6655 C   0  0  0  0  0  0  0  0  0  0  0  0
   12.9344   37.6801   32.0290 C   0  0  0  0  0  0  0  0  0  0  0  0
    9.6418   38.0758   30.6441 O   0  0  0  0  0  0  0  0  0  0  0  0
   11.5741   37.0170   31.7045 C   0  0  0  0  0  0  0  0  0  0  0  0
   13.4851   37.2125   33.3241 N   0  0  0  0  0  0  0  0  0  0  0  0
   11.6079   36.3407   30.4680 O   0  0  0  0  0  0  0  0  0  0  0  0
   14.4801   36.3321   33.5727 C   0  0  0  0  0  0  0  0  0  0  0  0
   13.1140   37.6277   34.5693 C   0  0  0  0  0  0  0  0  0  0  0  0
   15.2073   35.6155   32.6739 N   0  0  0  0  0  0  0  0  0  0  0  0
   14.6758   36.2306   34.9182 C   0  0  0  0  0  0  0  0  0  0  0  0
   13.8217   37.0450   35.5785 N   0  0  0  0  0  0  0  0  0  0  0  0
   16.1639   34.7602   33.1546 C   0  0  0  0  0  0  0  0  0  0  0  0
   15.6526   35.3506   35.4130 C   0  0  0  0  0  0  0  0  0  0  0  0
   16.3794   34.6316   34.5041 N   0  0  0  0  0  0  0  0  0  0  0  0
   15.9001   35.1933   36.8089 N   0  0  0  0  0  0  0  0  0  0  0  0
    9.0122   45.4315   33.6717 H   0  0  0  0  0  0  0  0  0  0  0  0
   11.8909   45.7658   32.9477 H   0  0  0  0  0  0  0  0  0  0  0  0
   10.7261   46.9687   33.1217 H   0  0  0  0  0  0  0  0  0  0  0  0
   10.7234   44.8827   31.1559 H   0  0  0  0  0  0  0  0  0  0  0  0
    9.3423   43.8334   31.4759 H   0  0  0  0  0  0  0  0  0  0  0  0
    7.0112   44.7108   31.5728 H   0  0  0  0  0  0  0  0  0  0  0  0
   10.3459   47.1853   30.4089 H   0  0  0  0  0  0  0  0  0  0  0  0
    5.4732   46.2626   30.4830 H   0  0  0  0  0  0  0  0  0  0  0  0
    8.7945   48.7666   29.3387 H   0  0  0  0  0  0  0  0  0  0  0  0
    4.5190   49.7125   28.8573 H   0  0  0  0  0  0  0  0  0  0  0  0
    4.0882   47.8597   31.2438 H   0  0  0  0  0  0  0  0  0  0  0  0
    5.1870   49.2824   31.4106 H   0  0  0  0  0  0  0  0  0  0  0  0
    3.4849   49.5201   30.9401 H   0  0  0  0  0  0  0  0  0  0  0  0
    5.7491   46.6794   27.7058 H   0  0  0  0  0  0  0  0  0  0  0  0
    0.7736   46.5427   27.9184 H   0  0  0  0  0  0  0  0  0  0  0  0
    3.2265   43.8414   24.8883 H   0  0  0  0  0  0  0  0  0  0  0  0
    3.3370   42.8224   26.4016 H   0  0  0  0  0  0  0  0  0  0  0  0
    9.8290   40.7385   31.7617 H   0  0  0  0  0  0  0  0  0  0  0  0
   11.3945   41.5459   31.4722 H   0  0  0  0  0  0  0  0  0  0  0  0
   11.6994   39.5069   30.3484 H   0  0  0  0  0  0  0  0  0  0  0  0
   10.1090   38.2635   32.6632 H   0  0  0  0  0  0  0  0  0  0  0  0
   13.6662   37.4515   31.2224 H   0  0  0  0  0  0  0  0  0  0  0  0
    8.9009   38.6925   30.8793 H   0  0  0  0  0  0  0  0  0  0  0  0
   11.2650   36.3083   32.5087 H   0  0  0  0  0  0  0  0  0  0  0  0
   12.1372   35.5140   30.6163 H   0  0  0  0  0  0  0  0  0  0  0  0
   12.3297   38.3530   34.7450 H   0  0  0  0  0  0  0  0  0  0  0  0
   16.7558   34.1781   32.4618 H   0  0  0  0  0  0  0  0  0  0  0  0
   16.6346   34.5300   37.1414 H   0  0  0  0  0  0  0  0  0  0  0  0
   15.3533   35.7360   37.5138 H   0  0  0  0  0  0  0  0  0  0  0  0
  1  2  2  0
  1  3  1  0
  3  4  1  0
  4  5  1  0
  6  1  1  0
  7  6  1  0
  6  8  1  0
  8  9  1  0
  9 10  2  0
 11  9  1  0
 10 12  1  0
 13 11  2  0
 12 14  2  0
 14 13  1  0
 14 15  1  0
 15 16  1  0
 16 17  1  0
 16 18  1  0
 18 19  2  0
 20 18  1  0
 19 21  1  0
 22 20  2  0
 20 23  1  0
 21 24  1  0
 21 25  2  0
 25 22  1  0
 23 26  1  0
 23 27  2  0
 24 28  1  0
 25 29  1  0
 28 29  1  0
  4 30  2  0
  4 31  1  0
 32 31  1  0
 32 33  1  0
 33 34  1  0
 33 35  1  0
 34 36  1  0
 35 37  1  0
 35 38  1  0
 38 36  1  0
 36 39  1  0
 38 40  1  0
 41 39  1  0
 42 39  1  0
 43 41  2  0
 41 44  1  0
 45 42  2  0
 46 43  1  0
 44 47  2  0
 44 45  1  0
 48 46  2  0
 48 47  1  0
 47 49  1  0
  6 50  1  1
  7 51  1  0
  7 52  1  0
  8 53  1  0
  8 54  1  0
 10 55  1  0
 11 56  1  0
 12 57  1  0
 13 58  1  0
 16 59  1  6
 17 60  1  0
 17 61  1  0
 17 62  1  0
 19 63  1  0
 22 64  1  0
 28 65  1  0
 28 66  1  0
 32 67  1  0
 32 68  1  0
 33 69  1  0
 35 70  1  0
 36 71  1  0
 37 72  1  0
 38 73  1  0
 40 74  1  0
 42 75  1  0
 46 76  1  0
 49 77  1  0
 49 78  1  0
M  CHG  3   5  -1  23   1  26  -1
M  END
>  <EmbedRMS>  (74) 
0.082794974593

$$$$

     RDKit          3D

 78 83  0  0  0  0  0  0  0  0999 V2000
   10.2834   43.7662   33.8257 C   0  0  0  0  0  0  0  0  0  0  0  0
   11.4102   43.5931   34.3753 O   0  0  0  0  0  0  0  0  0  0  0  0
    9.3638   42.7255   33.7349 O   0  0  0  0  0  0  0  0  0  0  0  0
    9.8907   41.2266   34.2934 P   0  0  0  0  0  0  0  0  0  0  0  0
   10.3743   41.4557   35.8828 O   0  0  0  0  0  0  0  0  0  0  0  0
    9.9546   45.0695   33.2036 C   0  0  1  0  0  0  0  0  0  0  0  0
   11.0272   46.0323   33.4756 N   0  0  0  0  0  0  0  0  0  0  0  0
    9.7467   44.8478   31.6877 C   0  0  0  0  0  0  0  0  0  0  0  0
    8.7924   45.8402   31.0842 C   0  0  0  0  0  0  0  0  0  0  0  0
    7.4062   45.6013   31.0987 C   0  0  0  0  0  0  0  0  0  0  0  0
    9.2817   46.9870   30.4425 C   0  0  0  0  0  0  0  0  0  0  0  0
    6.5280   46.5034   30.4840 C   0  0  0  0  0  0  0  0  0  0  0  0
    8.4030   47.8894   29.8320 C   0  0  0  0  0  0  0  0  0  0  0  0
    7.0128   47.6547   29.8471 C   0  0  0  0  0  0  0  0  0  0  0  0
    6.0716   48.5228   29.2633 O   0  0  0  0  0  0  0  0  0  0  0  0
    6.3256   49.7424   28.5529 C   0  0  2  0  0  0  0  0  0  0  0  0
    6.9356   49.4331   27.1764 C   0  0  0  0  0  0  0  0  0  0  0  0
    7.0744   50.7557   29.4207 C   0  0  0  0  0  0  0  0  0  0  0  0
    8.2358   51.4159   28.9335 C   0  0  0  0  0  0  0  0  0  0  0  0
    6.6303   51.0388   30.7597 C   0  0  0  0  0  0  0  0  0  0  0  0
    8.9215   52.2739   29.7825 C   0  0  0  0  0  0  0  0  0  0  0  0
    7.3816   51.9105   31.5797 C   0  0  0  0  0  0  0  0  0  0  0  0
    5.4391   50.4477   31.3066 N   0  0  0  0  0  0  0  0  0  0  0  0
   10.0692   52.9990   29.5248 O   0  0  0  0  0  0  0  0  0  0  0  0
    8.5159   52.5066   31.0501 C   0  0  0  0  0  0  0  0  0  0  0  0
    5.3837   50.1333   32.6450 O   0  0  0  0  0  0  0  0  0  0  0  0
    4.3894   50.3970   30.6339 O   0  0  0  0  0  0  0  0  0  0  0  0
   10.4036   53.7341   30.7098 C   0  0  0  0  0  0  0  0  0  0  0  0
    9.3853   53.3909   31.6593 O   0  0  0  0  0  0  0  0  0  0  0  0
    8.8123   40.1851   34.2127 O   0  0  0  0  0  0  0  0  0  0  0  0
   11.2407   40.7945   33.3670 O   0  0  0  0  0  0  0  0  0  0  0  0
   10.9134   40.6866   31.9954 C   0  0  0  0  0  0  0  0  0  0  0  0
   11.5167   39.3787   31.4404 C   0  0  0  0  0  0  0  0  0  0  0  0
   12.7486   39.0849   32.0735 O   0  0  0  0  0  0  0  0  0  0  0  0
   10.6039   38.1884   31.6669 C   0  0  0  0  0  0  0  0  0  0  0  0
   12.9329   37.6776   32.0284 C   0  0  0  0  0  0  0  0  0  0  0  0
    9.6374   38.0938   30.6484 O   0  0  0  0  0  0  0  0  0  0  0  0
   11.5737   37.0141   31.7055 C   0  0  0  0  0  0  0  0  0  0  0  0
   13.4853   37.2120   33.3238 N   0  0  0  0  0  0  0  0  0  0  0  0
   11.6210   36.3379   30.4683 O   0  0  0  0  0  0  0  0  0  0  0  0
   14.4804   36.3319   33.5726 C   0  0  0  0  0  0  0  0  0  0  0  0
   13.1141   37.6275   34.5689 C   0  0  0  0  0  0  0  0  0  0  0  0
   15.2076   35.6152   32.6740 N   0  0  0  0  0  0  0  0  0  0  0  0
   14.6761   36.2306   34.9181 C   0  0  0  0  0  0  0  0  0  0  0  0
   13.8218   37.0451   35.5783 N   0  0  0  0  0  0  0  0  0  0  0  0
   16.1642   34.7600   33.1548 C   0  0  0  0  0  0  0  0  0  0  0  0
   15.6527   35.3506   35.4131 C   0  0  0  0  0  0  0  0  0  0  0  0
   16.3795   34.6315   34.5043 N   0  0  0  0  0  0  0  0  0  0  0  0
   15.9001   35.1933   36.8090 N   0  0  0  0  0  0  0  0  0  0  0  0
    9.0119   45.4318   33.6713 H   0  0  0  0  0  0  0  0  0  0  0  0
   10.7256   46.9689   33.1213 H   0  0  0  0  0  0  0  0  0  0  0  0
   11.8904   45.7661   32.9469 H   0  0  0  0  0  0  0  0  0  0  0  0
   10.7231   44.8813   31.1558 H   0  0  0  0  0  0  0  0  0  0  0  0
    9.3418   43.8326   31.4763 H   0  0  0  0  0  0  0  0  0  0  0  0
    7.0086   44.7169   31.5811 H   0  0  0  0  0  0  0  0  0  0  0  0
   10.3463   47.1845   30.4129 H   0  0  0  0  0  0  0  0  0  0  0  0
    5.4634   46.3078   30.5053 H   0  0  0  0  0  0  0  0  0  0  0  0
    8.8252   48.7592   29.3577 H   0  0  0  0  0  0  0  0  0  0  0  0
    5.3367   50.1955   28.3303 H   0  0  0  0  0  0  0  0  0  0  0  0
    7.9638   49.0289   27.2601 H   0  0  0  0  0  0  0  0  0  0  0  0
    6.9501   50.3483   26.5471 H   0  0  0  0  0  0  0  0  0  0  0  0
    6.3101   48.6765   26.6569 H   0  0  0  0  0  0  0  0  0  0  0  0
    8.6201   51.2621   27.9359 H   0  0  0  0  0  0  0  0  0  0  0  0
    7.0768   52.1331   32.5941 H   0  0  0  0  0  0  0  0  0  0  0  0
   10.3835   54.8248   30.5037 H   0  0  0  0  0  0  0  0  0  0  0  0
   11.4000   53.4221   31.0870 H   0  0  0  0  0  0  0  0  0  0  0  0
   11.3827   41.5438   31.4669 H   0  0  0  0  0  0  0  0  0  0  0  0
    9.8225   40.7225   31.7632 H   0  0  0  0  0  0  0  0  0  0  0  0
   11.6978   39.5037   30.3478 H   0  0  0  0  0  0  0  0  0  0  0  0
   10.1084   38.2787   32.6627 H   0  0  0  0  0  0  0  0  0  0  0  0
   13.6638   37.4472   31.2214 H   0  0  0  0  0  0  0  0  0  0  0  0
    8.9763   37.4191   30.9532 H   0  0  0  0  0  0  0  0  0  0  0  0
   11.2821   36.3054   32.5172 H   0  0  0  0  0  0  0  0  0  0  0  0
   10.8658   35.6935   30.4652 H   0  0  0  0  0  0  0  0  0  0  0  0
   12.3293   38.3523   34.7445 H   0  0  0  0  0  0  0  0  0  0  0  0
   16.7561   34.1778   32.4621 H   0  0  0  0  0  0  0  0  0  0  0  0
   16.6345   34.5300   37.1416 H   0  0  0  0  0  0  0  0  0  0  0  0
   15.3533   35.7361   37.5138 H   0  0  0  0  0  0  0  0  0  0  0  0
  1  2  2  0
  1  3  1  0
  3  4  1  0
  4  5  1  0
  6  1  1  0
  7  6  1  0
  6  8  1  0
  8  9  1  0
  9 10  2  0
 11  9  1  0
 10 12  1  0
 13 11  2  0
 12 14  2  0
 14 13  1  0
 14 15  1  0
 15 16  1  0
 16 17  1  0
 16 18  1  0
 18 19  2  0
 20 18  1  0
 19 21  1  0
 22 20  2  0
 20 23  1  0
 21 24  1  0
 21 25  2  0
 25 22  1  0
 23 26  1  0
 23 27  2  0
 24 28  1  0
 25 29  1  0
 28 29  1  0
  4 30  2  0
  4 31  1  0
 32 31  1  0
 32 33  1  0
 33 34  1  0
 33 35  1  0
 34 36  1  0
 35 37  1  0
 35 38  1  0
 38 36  1  0
 36 39  1  0
 38 40  1  0
 41 39  1  0
 42 39  1  0
 43 41  2  0
 41 44  1  0
 45 42  2  0
 46 43  1  0
 44 47  2  0
 44 45  1  0
 48 46  2  0
 48 47  1  0
 47 49  1  0
  6 50  1  1
  7 51  1  0
  7 52  1  0
  8 53  1  0
  8 54  1  0
 10 55  1  0
 11 56  1  0
 12 57  1  0
 13 58  1  0
 16 59  1  6
 17 60  1  0
 17 61  1  0
 17 62  1  0
 19 63  1  0
 22 64  1  0
 28 65  1  0
 28 66  1  0
 32 67  1  0
 32 68  1  0
 33 69  1  0
 35 70  1  0
 36 71  1  0
 37 72  1  0
 38 73  1  0
 40 74  1  0
 42 75  1  0
 46 76  1  0
 49 77  1  0
 49 78  1  0
M  CHG  3   5  -1  23   1  26  -1
M  END
>  <EmbedRMS>  (75) 
0.0825577291654

$$$$

     RDKit          3D

 78 83  0  0  0  0  0  0  0  0999 V2000
   10.2834   43.7662   33.8256 C   0  0  0  0  0  0  0  0  0  0  0  0
   11.4102   43.5930   34.3752 O   0  0  0  0  0  0  0  0  0  0  0  0
    9.3637   42.7255   33.7348 O   0  0  0  0  0  0  0  0  0  0  0  0
    9.8907   41.2265   34.2933 P   0  0  0  0  0  0  0  0  0  0  0  0
   10.3743   41.4557   35.8828 O   0  0  0  0  0  0  0  0  0  0  0  0
    9.9546   45.0694   33.2034 C   0  0  1  0  0  0  0  0  0  0  0  0
   11.0273   46.0321   33.4755 N   0  0  0  0  0  0  0  0  0  0  0  0
    9.7467   44.8479   31.6875 C   0  0  0  0  0  0  0  0  0  0  0  0
    8.7924   45.8404   31.0840 C   0  0  0  0  0  0  0  0  0  0  0  0
    7.4056   45.6018   31.0995 C   0  0  0  0  0  0  0  0  0  0  0  0
    9.2821   46.9879   30.4428 C   0  0  0  0  0  0  0  0  0  0  0  0
    6.5269   46.5039   30.4850 C   0  0  0  0  0  0  0  0  0  0  0  0
    8.4029   47.8905   29.8329 C   0  0  0  0  0  0  0  0  0  0  0  0
    7.0142   47.6519   29.8451 C   0  0  0  0  0  0  0  0  0  0  0  0
    6.0869   48.5182   29.2428 O   0  0  0  0  0  0  0  0  0  0  0  0
    6.4086   49.6511   28.4350 C   0  0  2  0  0  0  0  0  0  0  0  0
    5.1513   50.4921   28.2112 C   0  0  0  0  0  0  0  0  0  0  0  0
    7.0313   49.2331   27.1096 C   0  0  0  0  0  0  0  0  0  0  0  0
    8.2970   49.7751   26.7747 C   0  0  0  0  0  0  0  0  0  0  0  0
    6.3715   48.3717   26.1660 C   0  0  0  0  0  0  0  0  0  0  0  0
    8.8578   49.4519   25.5465 C   0  0  0  0  0  0  0  0  0  0  0  0
    6.9850   48.0927   24.9247 C   0  0  0  0  0  0  0  0  0  0  0  0
    5.0823   47.8000   26.4252 N   0  0  0  0  0  0  0  0  0  0  0  0
   10.0686   49.8605   25.0212 O   0  0  0  0  0  0  0  0  0  0  0  0
    8.2291   48.6476   24.6601 C   0  0  0  0  0  0  0  0  0  0  0  0
    4.1217   47.8281   25.4409 O   0  0  0  0  0  0  0  0  0  0  0  0
    4.9171   47.0440   27.4031 O   0  0  0  0  0  0  0  0  0  0  0  0
   10.2078   49.2716   23.7209 C   0  0  0  0  0  0  0  0  0  0  0  0
    9.0107   48.5054   23.5297 O   0  0  0  0  0  0  0  0  0  0  0  0
    8.8123   40.1850   34.2127 O   0  0  0  0  0  0  0  0  0  0  0  0
   11.2407   40.7945   33.3670 O   0  0  0  0  0  0  0  0  0  0  0  0
   10.9134   40.6866   31.9954 C   0  0  0  0  0  0  0  0  0  0  0  0
   11.5167   39.3787   31.4404 C   0  0  0  0  0  0  0  0  0  0  0  0
   12.7486   39.0849   32.0734 O   0  0  0  0  0  0  0  0  0  0  0  0
   10.6039   38.1884   31.6669 C   0  0  0  0  0  0  0  0  0  0  0  0
   12.9329   37.6776   32.0284 C   0  0  0  0  0  0  0  0  0  0  0  0
    9.6374   38.0938   30.6484 O   0  0  0  0  0  0  0  0  0  0  0  0
   11.5737   37.0141   31.7055 C   0  0  0  0  0  0  0  0  0  0  0  0
   13.4853   37.2120   33.3238 N   0  0  0  0  0  0  0  0  0  0  0  0
   11.6210   36.3379   30.4683 O   0  0  0  0  0  0  0  0  0  0  0  0
   14.4804   36.3319   33.5726 C   0  0  0  0  0  0  0  0  0  0  0  0
   13.1141   37.6275   34.5689 C   0  0  0  0  0  0  0  0  0  0  0  0
   15.2076   35.6152   32.6740 N   0  0  0  0  0  0  0  0  0  0  0  0
   14.6761   36.2306   34.9181 C   0  0  0  0  0  0  0  0  0  0  0  0
   13.8218   37.0451   35.5783 N   0  0  0  0  0  0  0  0  0  0  0  0
   16.1642   34.7600   33.1548 C   0  0  0  0  0  0  0  0  0  0  0  0
   15.6528   35.3507   35.4131 C   0  0  0  0  0  0  0  0  0  0  0  0
   16.3795   34.6315   34.5043 N   0  0  0  0  0  0  0  0  0  0  0  0
   15.9001   35.1933   36.8090 N   0  0  0  0  0  0  0  0  0  0  0  0
    9.0120   45.4317   33.6712 H   0  0  0  0  0  0  0  0  0  0  0  0
   10.7259   46.9687   33.1212 H   0  0  0  0  0  0  0  0  0  0  0  0
   11.8906   45.7659   32.9468 H   0  0  0  0  0  0  0  0  0  0  0  0
    9.3416   43.8327   31.4761 H   0  0  0  0  0  0  0  0  0  0  0  0
   10.7231   44.8814   31.1555 H   0  0  0  0  0  0  0  0  0  0  0  0
    7.0082   44.7172   31.5819 H   0  0  0  0  0  0  0  0  0  0  0  0
   10.3465   47.1864   30.4146 H   0  0  0  0  0  0  0  0  0  0  0  0
    5.4624   46.3073   30.5024 H   0  0  0  0  0  0  0  0  0  0  0  0
    8.8169   48.7689   29.3621 H   0  0  0  0  0  0  0  0  0  0  0  0
    7.1090   50.3000   29.0067 H   0  0  0  0  0  0  0  0  0  0  0  0
    4.7802   50.8732   29.1863 H   0  0  0  0  0  0  0  0  0  0  0  0
    4.3416   49.8954   27.7448 H   0  0  0  0  0  0  0  0  0  0  0  0
    5.3826   51.3623   27.5601 H   0  0  0  0  0  0  0  0  0  0  0  0
    8.8268   50.4395   27.4456 H   0  0  0  0  0  0  0  0  0  0  0  0
    6.5083   47.4519   24.1939 H   0  0  0  0  0  0  0  0  0  0  0  0
   10.2837   50.0636   22.9467 H   0  0  0  0  0  0  0  0  0  0  0  0
   11.0966   48.6069   23.6935 H   0  0  0  0  0  0  0  0  0  0  0  0
   11.3828   41.5438   31.4669 H   0  0  0  0  0  0  0  0  0  0  0  0
    9.8225   40.7225   31.7631 H   0  0  0  0  0  0  0  0  0  0  0  0
   11.6978   39.5037   30.3478 H   0  0  0  0  0  0  0  0  0  0  0  0
   10.1084   38.2787   32.6627 H   0  0  0  0  0  0  0  0  0  0  0  0
   13.6638   37.4472   31.2214 H   0  0  0  0  0  0  0  0  0  0  0  0
    8.9763   37.4191   30.9532 H   0  0  0  0  0  0  0  0  0  0  0  0
   11.2821   36.3054   32.5172 H   0  0  0  0  0  0  0  0  0  0  0  0
   10.8658   35.6935   30.4653 H   0  0  0  0  0  0  0  0  0  0  0  0
   12.3293   38.3523   34.7444 H   0  0  0  0  0  0  0  0  0  0  0  0
   16.7561   34.1778   32.4621 H   0  0  0  0  0  0  0  0  0  0  0  0
   15.3533   35.7361   37.5138 H   0  0  0  0  0  0  0  0  0  0  0  0
   16.6345   34.5300   37.1416 H   0  0  0  0  0  0  0  0  0  0  0  0
  1  2  2  0
  1  3  1  0
  3  4  1  0
  4  5  1  0
  6  1  1  0
  7  6  1  0
  6  8  1  0
  8  9  1  0
  9 10  2  0
 11  9  1  0
 10 12  1  0
 13 11  2  0
 12 14  2  0
 14 13  1  0
 14 15  1  0
 15 16  1  0
 16 17  1  0
 16 18  1  0
 18 19  2  0
 20 18  1  0
 19 21  1  0
 22 20  2  0
 20 23  1  0
 21 24  1  0
 21 25  2  0
 25 22  1  0
 23 26  1  0
 23 27  2  0
 24 28  1  0
 25 29  1  0
 28 29  1  0
  4 30  2  0
  4 31  1  0
 32 31  1  0
 32 33  1  0
 33 34  1  0
 33 35  1  0
 34 36  1  0
 35 37  1  0
 35 38  1  0
 38 36  1  0
 36 39  1  0
 38 40  1  0
 41 39  1  0
 42 39  1  0
 43 41  2  0
 41 44  1  0
 45 42  2  0
 46 43  1  0
 44 47  2  0
 44 45  1  0
 48 46  2  0
 48 47  1  0
 47 49  1  0
  6 50  1  1
  7 51  1  0
  7 52  1  0
  8 53  1  0
  8 54  1  0
 10 55  1  0
 11 56  1  0
 12 57  1  0
 13 58  1  0
 16 59  1  1
 17 60  1  0
 17 61  1  0
 17 62  1  0
 19 63  1  0
 22 64  1  0
 28 65  1  0
 28 66  1  0
 32 67  1  0
 32 68  1  0
 33 69  1  0
 35 70  1  0
 36 71  1  0
 37 72  1  0
 38 73  1  0
 40 74  1  0
 42 75  1  0
 46 76  1  0
 49 77  1  0
 49 78  1  0
M  CHG  3   5  -1  23   1  26  -1
M  END
>  <EmbedRMS>  (76) 
0.0825731197838

$$$$

     RDKit          3D

 78 83  0  0  0  0  0  0  0  0999 V2000
   10.2840   43.7626   33.8275 C   0  0  0  0  0  0  0  0  0  0  0  0
   11.4104   43.5863   34.3767 O   0  0  0  0  0  0  0  0  0  0  0  0
    9.3634   42.7234   33.7351 O   0  0  0  0  0  0  0  0  0  0  0  0
    9.8899   41.2247   34.2940 P   0  0  0  0  0  0  0  0  0  0  0  0
   10.3724   41.4545   35.8837 O   0  0  0  0  0  0  0  0  0  0  0  0
    9.9549   45.0699   33.2063 C   0  0  1  0  0  0  0  0  0  0  0  0
   11.0198   46.0481   33.4571 N   0  0  0  0  0  0  0  0  0  0  0  0
    9.7507   44.8510   31.6921 C   0  0  0  0  0  0  0  0  0  0  0  0
    8.7946   45.8416   31.0865 C   0  0  0  0  0  0  0  0  0  0  0  0
    7.4079   45.6008   31.1006 C   0  0  0  0  0  0  0  0  0  0  0  0
    9.2827   46.9892   30.4451 C   0  0  0  0  0  0  0  0  0  0  0  0
    6.5254   46.5003   30.4862 C   0  0  0  0  0  0  0  0  0  0  0  0
    8.4008   47.8884   29.8345 C   0  0  0  0  0  0  0  0  0  0  0  0
    7.0191   47.6548   29.8434 C   0  0  0  0  0  0  0  0  0  0  0  0
    6.1879   48.5960   29.2135 O   0  0  0  0  0  0  0  0  0  0  0  0
    4.7850   48.4600   28.9806 C   0  0  2  0  0  0  0  0  0  0  0  0
    4.5005   47.4180   27.8898 C   0  0  0  0  0  0  0  0  0  0  0  0
    4.1928   49.8136   28.6183 C   0  0  0  0  0  0  0  0  0  0  0  0
    3.1857   50.3422   29.4651 C   0  0  0  0  0  0  0  0  0  0  0  0
    4.5720   50.5534   27.4433 C   0  0  0  0  0  0  0  0  0  0  0  0
    2.5869   51.5463   29.1200 C   0  0  0  0  0  0  0  0  0  0  0  0
    3.9135   51.7654   27.1371 C   0  0  0  0  0  0  0  0  0  0  0  0
    5.5931   50.0954   26.5451 N   0  0  0  0  0  0  0  0  0  0  0  0
    1.5923   52.2334   29.7892 O   0  0  0  0  0  0  0  0  0  0  0  0
    2.9329   52.2260   28.0039 C   0  0  0  0  0  0  0  0  0  0  0  0
    5.4011   50.2079   25.1875 O   0  0  0  0  0  0  0  0  0  0  0  0
    6.7382   49.8427   26.9699 O   0  0  0  0  0  0  0  0  0  0  0  0
    1.2970   53.4220   29.0431 C   0  0  0  0  0  0  0  0  0  0  0  0
    2.1756   53.3778   27.9106 O   0  0  0  0  0  0  0  0  0  0  0  0
    8.8119   40.1831   34.2121 O   0  0  0  0  0  0  0  0  0  0  0  0
   11.2416   40.7932   33.3699 O   0  0  0  0  0  0  0  0  0  0  0  0
   10.9187   40.6909   31.9972 C   0  0  0  0  0  0  0  0  0  0  0  0
   11.5172   39.3814   31.4407 C   0  0  0  0  0  0  0  0  0  0  0  0
   12.7493   39.0855   32.0727 O   0  0  0  0  0  0  0  0  0  0  0  0
   10.6023   38.1907   31.6665 C   0  0  0  0  0  0  0  0  0  0  0  0
   12.9319   37.6781   32.0281 C   0  0  0  0  0  0  0  0  0  0  0  0
    9.6392   38.0797   30.6452 O   0  0  0  0  0  0  0  0  0  0  0  0
   11.5715   37.0165   31.7056 C   0  0  0  0  0  0  0  0  0  0  0  0
   13.4847   37.2121   33.3235 N   0  0  0  0  0  0  0  0  0  0  0  0
   11.6187   36.3383   30.4694 O   0  0  0  0  0  0  0  0  0  0  0  0
   14.4801   36.3321   33.5724 C   0  0  0  0  0  0  0  0  0  0  0  0
   13.1137   37.6275   34.5687 C   0  0  0  0  0  0  0  0  0  0  0  0
   15.2073   35.6153   32.6738 N   0  0  0  0  0  0  0  0  0  0  0  0
   14.6759   36.2308   34.9179 C   0  0  0  0  0  0  0  0  0  0  0  0
   13.8216   37.0452   35.5781 N   0  0  0  0  0  0  0  0  0  0  0  0
   16.1640   34.7602   33.1546 C   0  0  0  0  0  0  0  0  0  0  0  0
   15.6526   35.3508   35.4129 C   0  0  0  0  0  0  0  0  0  0  0  0
   16.3794   34.6317   34.5041 N   0  0  0  0  0  0  0  0  0  0  0  0
   15.8999   35.1935   36.8088 N   0  0  0  0  0  0  0  0  0  0  0  0
    9.0098   45.4347   33.6668 H   0  0  0  0  0  0  0  0  0  0  0  0
   11.9349   45.6934   33.0928 H   0  0  0  0  0  0  0  0  0  0  0  0
   11.1131   46.1992   34.4884 H   0  0  0  0  0  0  0  0  0  0  0  0
   10.7311   44.8930   31.1676 H   0  0  0  0  0  0  0  0  0  0  0  0
    9.3520   43.8343   31.4757 H   0  0  0  0  0  0  0  0  0  0  0  0
    7.0129   44.7165   31.5856 H   0  0  0  0  0  0  0  0  0  0  0  0
   10.3466   47.1899   30.4160 H   0  0  0  0  0  0  0  0  0  0  0  0
    5.4680   46.2854   30.5275 H   0  0  0  0  0  0  0  0  0  0  0  0
    8.7941   48.7709   29.3457 H   0  0  0  0  0  0  0  0  0  0  0  0
    4.3037   48.1036   29.9169 H   0  0  0  0  0  0  0  0  0  0  0  0
    3.4182   47.4131   27.6388 H   0  0  0  0  0  0  0  0  0  0  0  0
    4.7733   46.4031   28.2435 H   0  0  0  0  0  0  0  0  0  0  0  0
    5.0843   47.6224   26.9706 H   0  0  0  0  0  0  0  0  0  0  0  0
    2.8655   49.8258   30.3612 H   0  0  0  0  0  0  0  0  0  0  0  0
    4.1727   52.3392   26.2566 H   0  0  0  0  0  0  0  0  0  0  0  0
    1.5077   54.3229   29.6567 H   0  0  0  0  0  0  0  0  0  0  0  0
    0.2387   53.4120   28.7077 H   0  0  0  0  0  0  0  0  0  0  0  0
   11.3972   41.5459   31.4735 H   0  0  0  0  0  0  0  0  0  0  0  0
    9.8300   40.7411   31.7610 H   0  0  0  0  0  0  0  0  0  0  0  0
   11.6974   39.5067   30.3480 H   0  0  0  0  0  0  0  0  0  0  0  0
   10.1077   38.2647   32.6645 H   0  0  0  0  0  0  0  0  0  0  0  0
   13.6621   37.4467   31.2208 H   0  0  0  0  0  0  0  0  0  0  0  0
    8.8975   38.6943   30.8831 H   0  0  0  0  0  0  0  0  0  0  0  0
   11.2806   36.3073   32.5170 H   0  0  0  0  0  0  0  0  0  0  0  0
   10.8492   35.7110   30.4585 H   0  0  0  0  0  0  0  0  0  0  0  0
   12.3290   38.3523   34.7444 H   0  0  0  0  0  0  0  0  0  0  0  0
   16.7559   34.1780   32.4619 H   0  0  0  0  0  0  0  0  0  0  0  0
   16.6344   34.5301   37.1414 H   0  0  0  0  0  0  0  0  0  0  0  0
   15.3532   35.7362   37.5137 H   0  0  0  0  0  0  0  0  0  0  0  0
  1  2  2  0
  1  3  1  0
  3  4  1  0
  4  5  1  0
  6  1  1  0
  7  6  1  0
  6  8  1  0
  8  9  1  0
  9 10  2  0
 11  9  1  0
 10 12  1  0
 13 11  2  0
 12 14  2  0
 14 13  1  0
 14 15  1  0
 15 16  1  0
 16 17  1  0
 16 18  1  0
 18 19  2  0
 20 18  1  0
 19 21  1  0
 22 20  2  0
 20 23  1  0
 21 24  1  0
 21 25  2  0
 25 22  1  0
 23 26  1  0
 23 27  2  0
 24 28  1  0
 25 29  1  0
 28 29  1  0
  4 30  2  0
  4 31  1  0
 32 31  1  0
 32 33  1  0
 33 34  1  0
 33 35  1  0
 34 36  1  0
 35 37  1  0
 35 38  1  0
 38 36  1  0
 36 39  1  0
 38 40  1  0
 41 39  1  0
 42 39  1  0
 43 41  2  0
 41 44  1  0
 45 42  2  0
 46 43  1  0
 44 47  2  0
 44 45  1  0
 48 46  2  0
 48 47  1  0
 47 49  1  0
  6 50  1  1
  7 51  1  0
  7 52  1  0
  8 53  1  0
  8 54  1  0
 10 55  1  0
 11 56  1  0
 12 57  1  0
 13 58  1  0
 16 59  1  1
 17 60  1  0
 17 61  1  0
 17 62  1  0
 19 63  1  0
 22 64  1  0
 28 65  1  0
 28 66  1  0
 32 67  1  0
 32 68  1  0
 33 69  1  0
 35 70  1  0
 36 71  1  0
 37 72  1  0
 38 73  1  0
 40 74  1  0
 42 75  1  0
 46 76  1  0
 49 77  1  0
 49 78  1  0
M  CHG  3   5  -1  23   1  26  -1
M  END
>  <EmbedRMS>  (77) 
0.0838213748349

$$$$

     RDKit          3D

 78 83  0  0  0  0  0  0  0  0999 V2000
   10.2835   43.7661   33.8253 C   0  0  0  0  0  0  0  0  0  0  0  0
   11.4101   43.5931   34.3751 O   0  0  0  0  0  0  0  0  0  0  0  0
    9.3639   42.7253   33.7345 O   0  0  0  0  0  0  0  0  0  0  0  0
    9.8906   41.2265   34.2938 P   0  0  0  0  0  0  0  0  0  0  0  0
   10.3732   41.4559   35.8834 O   0  0  0  0  0  0  0  0  0  0  0  0
    9.9545   45.0695   33.2031 C   0  0  1  0  0  0  0  0  0  0  0  0
   11.0271   46.0322   33.4753 N   0  0  0  0  0  0  0  0  0  0  0  0
    9.7464   44.8483   31.6870 C   0  0  0  0  0  0  0  0  0  0  0  0
    8.7920   45.8408   31.0835 C   0  0  0  0  0  0  0  0  0  0  0  0
    7.4038   45.6021   31.1005 C   0  0  0  0  0  0  0  0  0  0  0  0
    9.2825   46.9896   30.4423 C   0  0  0  0  0  0  0  0  0  0  0  0
    6.5241   46.5046   30.4866 C   0  0  0  0  0  0  0  0  0  0  0  0
    8.4013   47.8916   29.8348 C   0  0  0  0  0  0  0  0  0  0  0  0
    7.0212   47.6465   29.8437 C   0  0  0  0  0  0  0  0  0  0  0  0
    6.1445   48.5466   29.2307 O   0  0  0  0  0  0  0  0  0  0  0  0
    5.7751   48.4745   27.8496 C   0  0  2  0  0  0  0  0  0  0  0  0
    4.8686   47.2645   27.5813 C   0  0  0  0  0  0  0  0  0  0  0  0
    7.0008   48.5343   26.9431 C   0  0  0  0  0  0  0  0  0  0  0  0
    7.7167   47.3461   26.6416 C   0  0  0  0  0  0  0  0  0  0  0  0
    7.4559   49.7782   26.3901 C   0  0  0  0  0  0  0  0  0  0  0  0
    8.8008   47.4229   25.7779 C   0  0  0  0  0  0  0  0  0  0  0  0
    8.5544   49.7900   25.4997 C   0  0  0  0  0  0  0  0  0  0  0  0
    6.8471   51.0287   26.7507 N   0  0  0  0  0  0  0  0  0  0  0  0
    9.6269   46.4036   25.3451 O   0  0  0  0  0  0  0  0  0  0  0  0
    9.1971   48.5913   25.2252 C   0  0  0  0  0  0  0  0  0  0  0  0
    6.5936   51.3170   28.0719 O   0  0  0  0  0  0  0  0  0  0  0  0
    6.7498   51.9425   25.9058 O   0  0  0  0  0  0  0  0  0  0  0  0
   10.6040   46.9710   24.4619 C   0  0  0  0  0  0  0  0  0  0  0  0
   10.2932   48.3702   24.4136 O   0  0  0  0  0  0  0  0  0  0  0  0
    8.8126   40.1847   34.2123 O   0  0  0  0  0  0  0  0  0  0  0  0
   11.2418   40.7942   33.3694 O   0  0  0  0  0  0  0  0  0  0  0  0
   10.9179   40.6904   31.9970 C   0  0  0  0  0  0  0  0  0  0  0  0
   11.5181   39.3814   31.4408 C   0  0  0  0  0  0  0  0  0  0  0  0
   12.7498   39.0870   32.0746 O   0  0  0  0  0  0  0  0  0  0  0  0
   10.6045   38.1892   31.6655 C   0  0  0  0  0  0  0  0  0  0  0  0
   12.9344   37.6801   32.0290 C   0  0  0  0  0  0  0  0  0  0  0  0
    9.6419   38.0758   30.6440 O   0  0  0  0  0  0  0  0  0  0  0  0
   11.5741   37.0170   31.7045 C   0  0  0  0  0  0  0  0  0  0  0  0
   13.4851   37.2126   33.3241 N   0  0  0  0  0  0  0  0  0  0  0  0
   11.6079   36.3407   30.4680 O   0  0  0  0  0  0  0  0  0  0  0  0
   14.4801   36.3321   33.5727 C   0  0  0  0  0  0  0  0  0  0  0  0
   13.1140   37.6278   34.5693 C   0  0  0  0  0  0  0  0  0  0  0  0
   15.2072   35.6155   32.6739 N   0  0  0  0  0  0  0  0  0  0  0  0
   14.6758   36.2306   34.9181 C   0  0  0  0  0  0  0  0  0  0  0  0
   13.8217   37.0451   35.5784 N   0  0  0  0  0  0  0  0  0  0  0  0
   16.1639   34.7602   33.1546 C   0  0  0  0  0  0  0  0  0  0  0  0
   15.6526   35.3506   35.4130 C   0  0  0  0  0  0  0  0  0  0  0  0
   16.3794   34.6316   34.5040 N   0  0  0  0  0  0  0  0  0  0  0  0
   15.9001   35.1933   36.8089 N   0  0  0  0  0  0  0  0  0  0  0  0
    9.0119   45.4316   33.6709 H   0  0  0  0  0  0  0  0  0  0  0  0
   11.8904   45.7660   32.9466 H   0  0  0  0  0  0  0  0  0  0  0  0
   10.7256   46.9687   33.1210 H   0  0  0  0  0  0  0  0  0  0  0  0
   10.7227   44.8820   31.1549 H   0  0  0  0  0  0  0  0  0  0  0  0
    9.3414   43.8332   31.4755 H   0  0  0  0  0  0  0  0  0  0  0  0
    7.0066   44.7187   31.5851 H   0  0  0  0  0  0  0  0  0  0  0  0
   10.3467   47.1883   30.4116 H   0  0  0  0  0  0  0  0  0  0  0  0
    5.4587   46.3148   30.5080 H   0  0  0  0  0  0  0  0  0  0  0  0
    8.7910   48.7763   29.3475 H   0  0  0  0  0  0  0  0  0  0  0  0
    5.1324   49.3533   27.6358 H   0  0  0  0  0  0  0  0  0  0  0  0
    4.6117   47.2111   26.5018 H   0  0  0  0  0  0  0  0  0  0  0  0
    3.9271   47.3706   28.1610 H   0  0  0  0  0  0  0  0  0  0  0  0
    5.3485   46.3133   27.8871 H   0  0  0  0  0  0  0  0  0  0  0  0
    7.4481   46.3887   27.0646 H   0  0  0  0  0  0  0  0  0  0  0  0
    8.9174   50.7120   25.0639 H   0  0  0  0  0  0  0  0  0  0  0  0
   10.5133   46.5232   23.4502 H   0  0  0  0  0  0  0  0  0  0  0  0
   11.6250   46.8191   24.8705 H   0  0  0  0  0  0  0  0  0  0  0  0
   11.3947   41.5459   31.4722 H   0  0  0  0  0  0  0  0  0  0  0  0
    9.8290   40.7385   31.7616 H   0  0  0  0  0  0  0  0  0  0  0  0
   11.6995   39.5069   30.3484 H   0  0  0  0  0  0  0  0  0  0  0  0
   10.1090   38.2635   32.6632 H   0  0  0  0  0  0  0  0  0  0  0  0
   13.6662   37.4515   31.2225 H   0  0  0  0  0  0  0  0  0  0  0  0
    8.9009   38.6925   30.8792 H   0  0  0  0  0  0  0  0  0  0  0  0
   11.2650   36.3083   32.5087 H   0  0  0  0  0  0  0  0  0  0  0  0
   12.1373   35.5141   30.6164 H   0  0  0  0  0  0  0  0  0  0  0  0
   12.3298   38.3531   34.7450 H   0  0  0  0  0  0  0  0  0  0  0  0
   16.7557   34.1781   32.4618 H   0  0  0  0  0  0  0  0  0  0  0  0
   15.3533   35.7360   37.5137 H   0  0  0  0  0  0  0  0  0  0  0  0
   16.6346   34.5300   37.1415 H   0  0  0  0  0  0  0  0  0  0  0  0
  1  2  2  0
  1  3  1  0
  3  4  1  0
  4  5  1  0
  6  1  1  0
  7  6  1  0
  6  8  1  0
  8  9  1  0
  9 10  2  0
 11  9  1  0
 10 12  1  0
 13 11  2  0
 12 14  2  0
 14 13  1  0
 14 15  1  0
 15 16  1  0
 16 17  1  0
 16 18  1  0
 18 19  2  0
 20 18  1  0
 19 21  1  0
 22 20  2  0
 20 23  1  0
 21 24  1  0
 21 25  2  0
 25 22  1  0
 23 26  1  0
 23 27  2  0
 24 28  1  0
 25 29  1  0
 28 29  1  0
  4 30  2  0
  4 31  1  0
 32 31  1  0
 32 33  1  0
 33 34  1  0
 33 35  1  0
 34 36  1  0
 35 37  1  0
 35 38  1  0
 38 36  1  0
 36 39  1  0
 38 40  1  0
 41 39  1  0
 42 39  1  0
 43 41  2  0
 41 44  1  0
 45 42  2  0
 46 43  1  0
 44 47  2  0
 44 45  1  0
 48 46  2  0
 48 47  1  0
 47 49  1  0
  6 50  1  1
  7 51  1  0
  7 52  1  0
  8 53  1  0
  8 54  1  0
 10 55  1  0
 11 56  1  0
 12 57  1  0
 13 58  1  0
 16 59  1  6
 17 60  1  0
 17 61  1  0
 17 62  1  0
 19 63  1  0
 22 64  1  0
 28 65  1  0
 28 66  1  0
 32 67  1  0
 32 68  1  0
 33 69  1  0
 35 70  1  0
 36 71  1  0
 37 72  1  0
 38 73  1  0
 40 74  1  0
 42 75  1  0
 46 76  1  0
 49 77  1  0
 49 78  1  0
M  CHG  3   5  -1  23   1  26  -1
M  END
>  <EmbedRMS>  (78) 
0.0829586378975

$$$$

     RDKit          3D

 78 83  0  0  0  0  0  0  0  0999 V2000
   10.2804   43.7664   33.8248 C   0  0  0  0  0  0  0  0  0  0  0  0
   11.4110   43.5921   34.3667 O   0  0  0  0  0  0  0  0  0  0  0  0
    9.3621   42.7248   33.7343 O   0  0  0  0  0  0  0  0  0  0  0  0
    9.8905   41.2264   34.2931 P   0  0  0  0  0  0  0  0  0  0  0  0
   10.3744   41.4561   35.8824 O   0  0  0  0  0  0  0  0  0  0  0  0
    9.9458   45.0735   33.2111 C   0  0  1  0  0  0  0  0  0  0  0  0
   11.0264   46.0292   33.4708 N   0  0  0  0  0  0  0  0  0  0  0  0
    9.7539   44.8541   31.6948 C   0  0  0  0  0  0  0  0  0  0  0  0
    8.7957   45.8413   31.0848 C   0  0  0  0  0  0  0  0  0  0  0  0
    7.4090   45.6001   31.1008 C   0  0  0  0  0  0  0  0  0  0  0  0
    9.2823   46.9871   30.4382 C   0  0  0  0  0  0  0  0  0  0  0  0
    6.5260   46.4992   30.4866 C   0  0  0  0  0  0  0  0  0  0  0  0
    8.3996   47.8863   29.8293 C   0  0  0  0  0  0  0  0  0  0  0  0
    7.0175   47.6569   29.8495 C   0  0  0  0  0  0  0  0  0  0  0  0
    6.1801   48.5981   29.2277 O   0  0  0  0  0  0  0  0  0  0  0  0
    4.7525   48.5938   29.2654 C   0  0  2  0  0  0  0  0  0  0  0  0
    4.2122   49.5798   28.2290 C   0  0  0  0  0  0  0  0  0  0  0  0
    4.2329   48.9228   30.6581 C   0  0  0  0  0  0  0  0  0  0  0  0
    3.3437   48.0047   31.2693 C   0  0  0  0  0  0  0  0  0  0  0  0
    4.5567   50.1411   31.3462 C   0  0  0  0  0  0  0  0  0  0  0  0
    2.8170   48.3159   32.5160 C   0  0  0  0  0  0  0  0  0  0  0  0
    3.9781   50.4104   32.6063 C   0  0  0  0  0  0  0  0  0  0  0  0
    5.4413   51.1169   30.7818 N   0  0  0  0  0  0  0  0  0  0  0  0
    1.9425   47.5756   33.2881 O   0  0  0  0  0  0  0  0  0  0  0  0
    3.1192   49.4686   33.1554 C   0  0  0  0  0  0  0  0  0  0  0  0
    6.7681   50.8110   30.5932 O   0  0  0  0  0  0  0  0  0  0  0  0
    5.0871   52.3125   30.7322 O   0  0  0  0  0  0  0  0  0  0  0  0
    1.6805   48.3128   34.4900 C   0  0  0  0  0  0  0  0  0  0  0  0
    2.4517   49.5154   34.3641 O   0  0  0  0  0  0  0  0  0  0  0  0
    8.8126   40.1845   34.2128 O   0  0  0  0  0  0  0  0  0  0  0  0
   11.2407   40.7947   33.3669 O   0  0  0  0  0  0  0  0  0  0  0  0
   10.9135   40.6866   31.9953 C   0  0  0  0  0  0  0  0  0  0  0  0
   11.5167   39.3787   31.4404 C   0  0  0  0  0  0  0  0  0  0  0  0
   12.7486   39.0849   32.0735 O   0  0  0  0  0  0  0  0  0  0  0  0
   10.6040   38.1884   31.6667 C   0  0  0  0  0  0  0  0  0  0  0  0
   12.9331   37.6776   32.0283 C   0  0  0  0  0  0  0  0  0  0  0  0
    9.6375   38.0937   30.6481 O   0  0  0  0  0  0  0  0  0  0  0  0
   11.5739   37.0140   31.7055 C   0  0  0  0  0  0  0  0  0  0  0  0
   13.4854   37.2121   33.3237 N   0  0  0  0  0  0  0  0  0  0  0  0
   11.6214   36.3374   30.4686 O   0  0  0  0  0  0  0  0  0  0  0  0
   14.4804   36.3319   33.5726 C   0  0  0  0  0  0  0  0  0  0  0  0
   13.1141   37.6276   34.5688 C   0  0  0  0  0  0  0  0  0  0  0  0
   15.2077   35.6154   32.6740 N   0  0  0  0  0  0  0  0  0  0  0  0
   14.6758   36.2305   34.9181 C   0  0  0  0  0  0  0  0  0  0  0  0
   13.8216   37.0450   35.5782 N   0  0  0  0  0  0  0  0  0  0  0  0
   16.1642   34.7601   33.1549 C   0  0  0  0  0  0  0  0  0  0  0  0
   15.6523   35.3504   35.4132 C   0  0  0  0  0  0  0  0  0  0  0  0
   16.3793   34.6314   34.5044 N   0  0  0  0  0  0  0  0  0  0  0  0
   15.8998   35.1936   36.8091 N   0  0  0  0  0  0  0  0  0  0  0  0
    8.9994   45.4378   33.6723 H   0  0  0  0  0  0  0  0  0  0  0  0
   11.0497   46.2281   34.4981 H   0  0  0  0  0  0  0  0  0  0  0  0
   10.7758   46.9368   33.0158 H   0  0  0  0  0  0  0  0  0  0  0  0
    9.3643   43.8353   31.4711 H   0  0  0  0  0  0  0  0  0  0  0  0
   10.7411   44.9074   31.1837 H   0  0  0  0  0  0  0  0  0  0  0  0
    7.0151   44.7143   31.5839 H   0  0  0  0  0  0  0  0  0  0  0  0
   10.3461   47.1866   30.4026 H   0  0  0  0  0  0  0  0  0  0  0  0
    5.4702   46.2772   30.5114 H   0  0  0  0  0  0  0  0  0  0  0  0
    8.7920   48.7681   29.3389 H   0  0  0  0  0  0  0  0  0  0  0  0
    4.3952   47.5903   28.9433 H   0  0  0  0  0  0  0  0  0  0  0  0
    3.1027   49.6158   28.2755 H   0  0  0  0  0  0  0  0  0  0  0  0
    4.6159   50.5996   28.3902 H   0  0  0  0  0  0  0  0  0  0  0  0
    4.5094   49.2497   27.2110 H   0  0  0  0  0  0  0  0  0  0  0  0
    3.0599   47.0793   30.7844 H   0  0  0  0  0  0  0  0  0  0  0  0
    4.2018   51.3235   33.1430 H   0  0  0  0  0  0  0  0  0  0  0  0
    2.0150   47.7343   35.3767 H   0  0  0  0  0  0  0  0  0  0  0  0
    0.5997   48.5564   34.5628 H   0  0  0  0  0  0  0  0  0  0  0  0
   11.3828   41.5437   31.4668 H   0  0  0  0  0  0  0  0  0  0  0  0
    9.8228   40.7226   31.7627 H   0  0  0  0  0  0  0  0  0  0  0  0
   11.6980   39.5037   30.3479 H   0  0  0  0  0  0  0  0  0  0  0  0
   10.1080   38.2789   32.6620 H   0  0  0  0  0  0  0  0  0  0  0  0
   13.6639   37.4474   31.2212 H   0  0  0  0  0  0  0  0  0  0  0  0
    8.9765   37.4190   30.9531 H   0  0  0  0  0  0  0  0  0  0  0  0
   11.2821   36.3055   32.5173 H   0  0  0  0  0  0  0  0  0  0  0  0
   10.8659   35.6934   30.4653 H   0  0  0  0  0  0  0  0  0  0  0  0
   12.3295   38.3525   34.7443 H   0  0  0  0  0  0  0  0  0  0  0  0
   16.7564   34.1784   32.4623 H   0  0  0  0  0  0  0  0  0  0  0  0
   15.3530   35.7366   37.5137 H   0  0  0  0  0  0  0  0  0  0  0  0
   16.6343   34.5304   37.1420 H   0  0  0  0  0  0  0  0  0  0  0  0
  1  2  2  0
  1  3  1  0
  3  4  1  0
  4  5  1  0
  6  1  1  0
  7  6  1  0
  6  8  1  0
  8  9  1  0
  9 10  2  0
 11  9  1  0
 10 12  1  0
 13 11  2  0
 12 14  2  0
 14 13  1  0
 14 15  1  0
 15 16  1  0
 16 17  1  0
 16 18  1  0
 18 19  2  0
 20 18  1  0
 19 21  1  0
 22 20  2  0
 20 23  1  0
 21 24  1  0
 21 25  2  0
 25 22  1  0
 23 26  1  0
 23 27  2  0
 24 28  1  0
 25 29  1  0
 28 29  1  0
  4 30  2  0
  4 31  1  0
 32 31  1  0
 32 33  1  0
 33 34  1  0
 33 35  1  0
 34 36  1  0
 35 37  1  0
 35 38  1  0
 38 36  1  0
 36 39  1  0
 38 40  1  0
 41 39  1  0
 42 39  1  0
 43 41  2  0
 41 44  1  0
 45 42  2  0
 46 43  1  0
 44 47  2  0
 44 45  1  0
 48 46  2  0
 48 47  1  0
 47 49  1  0
  6 50  1  1
  7 51  1  0
  7 52  1  0
  8 53  1  0
  8 54  1  0
 10 55  1  0
 11 56  1  0
 12 57  1  0
 13 58  1  0
 16 59  1  6
 17 60  1  0
 17 61  1  0
 17 62  1  0
 19 63  1  0
 22 64  1  0
 28 65  1  0
 28 66  1  0
 32 67  1  0
 32 68  1  0
 33 69  1  0
 35 70  1  0
 36 71  1  0
 37 72  1  0
 38 73  1  0
 40 74  1  0
 42 75  1  0
 46 76  1  0
 49 77  1  0
 49 78  1  0
M  CHG  3   5  -1  23   1  26  -1
M  END
>  <EmbedRMS>  (79) 
0.0824127402558

$$$$

     RDKit          3D

 78 83  0  0  0  0  0  0  0  0999 V2000
   10.2805   43.7663   33.8249 C   0  0  0  0  0  0  0  0  0  0  0  0
   11.4111   43.5919   34.3667 O   0  0  0  0  0  0  0  0  0  0  0  0
    9.3622   42.7247   33.7342 O   0  0  0  0  0  0  0  0  0  0  0  0
    9.8904   41.2264   34.2936 P   0  0  0  0  0  0  0  0  0  0  0  0
   10.3731   41.4565   35.8832 O   0  0  0  0  0  0  0  0  0  0  0  0
    9.9459   45.0736   33.2113 C   0  0  1  0  0  0  0  0  0  0  0  0
   11.0265   46.0292   33.4710 N   0  0  0  0  0  0  0  0  0  0  0  0
    9.7540   44.8543   31.6950 C   0  0  0  0  0  0  0  0  0  0  0  0
    8.7957   45.8414   31.0851 C   0  0  0  0  0  0  0  0  0  0  0  0
    7.4091   45.5998   31.1005 C   0  0  0  0  0  0  0  0  0  0  0  0
    9.2825   46.9875   30.4390 C   0  0  0  0  0  0  0  0  0  0  0  0
    6.5262   46.4984   30.4852 C   0  0  0  0  0  0  0  0  0  0  0  0
    8.3997   47.8865   29.8299 C   0  0  0  0  0  0  0  0  0  0  0  0
    7.0178   47.6562   29.8489 C   0  0  0  0  0  0  0  0  0  0  0  0
    6.1810   48.5965   29.2256 O   0  0  0  0  0  0  0  0  0  0  0  0
    4.7537   48.6010   29.2733 C   0  0  2  0  0  0  0  0  0  0  0  0
    4.2117   49.6031   28.2535 C   0  0  0  0  0  0  0  0  0  0  0  0
    4.2430   48.9133   30.6737 C   0  0  0  0  0  0  0  0  0  0  0  0
    3.3569   47.9856   31.2755 C   0  0  0  0  0  0  0  0  0  0  0  0
    4.5684   50.1233   31.3795 C   0  0  0  0  0  0  0  0  0  0  0  0
    2.8361   48.2766   32.5291 C   0  0  0  0  0  0  0  0  0  0  0  0
    3.9935   50.3715   32.6456 C   0  0  0  0  0  0  0  0  0  0  0  0
    5.4424   51.1176   30.8285 N   0  0  0  0  0  0  0  0  0  0  0  0
    1.9668   47.5228   33.2940 O   0  0  0  0  0  0  0  0  0  0  0  0
    3.1397   49.4195   33.1845 C   0  0  0  0  0  0  0  0  0  0  0  0
    5.0849   52.4441   30.9001 O   0  0  0  0  0  0  0  0  0  0  0  0
    6.6227   50.8288   30.5482 O   0  0  0  0  0  0  0  0  0  0  0  0
    1.7109   48.2403   34.5091 C   0  0  0  0  0  0  0  0  0  0  0  0
    2.4791   49.4462   34.3977 O   0  0  0  0  0  0  0  0  0  0  0  0
    8.8128   40.1841   34.2124 O   0  0  0  0  0  0  0  0  0  0  0  0
   11.2419   40.7944   33.3695 O   0  0  0  0  0  0  0  0  0  0  0  0
   10.9186   40.6911   31.9969 C   0  0  0  0  0  0  0  0  0  0  0  0
   11.5172   39.3814   31.4407 C   0  0  0  0  0  0  0  0  0  0  0  0
   12.7492   39.0856   32.0729 O   0  0  0  0  0  0  0  0  0  0  0  0
   10.6023   38.1908   31.6665 C   0  0  0  0  0  0  0  0  0  0  0  0
   12.9319   37.6781   32.0281 C   0  0  0  0  0  0  0  0  0  0  0  0
    9.6392   38.0797   30.6452 O   0  0  0  0  0  0  0  0  0  0  0  0
   11.5715   37.0165   31.7056 C   0  0  0  0  0  0  0  0  0  0  0  0
   13.4847   37.2121   33.3236 N   0  0  0  0  0  0  0  0  0  0  0  0
   11.6187   36.3384   30.4695 O   0  0  0  0  0  0  0  0  0  0  0  0
   14.4801   36.3321   33.5724 C   0  0  0  0  0  0  0  0  0  0  0  0
   13.1137   37.6275   34.5688 C   0  0  0  0  0  0  0  0  0  0  0  0
   15.2073   35.6153   32.6738 N   0  0  0  0  0  0  0  0  0  0  0  0
   14.6759   36.2308   34.9179 C   0  0  0  0  0  0  0  0  0  0  0  0
   13.8216   37.0452   35.5781 N   0  0  0  0  0  0  0  0  0  0  0  0
   16.1640   34.7602   33.1546 C   0  0  0  0  0  0  0  0  0  0  0  0
   15.6526   35.3508   35.4129 C   0  0  0  0  0  0  0  0  0  0  0  0
   16.3794   34.6317   34.5041 N   0  0  0  0  0  0  0  0  0  0  0  0
   15.8999   35.1935   36.8088 N   0  0  0  0  0  0  0  0  0  0  0  0
    8.9994   45.4380   33.6723 H   0  0  0  0  0  0  0  0  0  0  0  0
   11.0500   46.2277   34.4984 H   0  0  0  0  0  0  0  0  0  0  0  0
   10.7762   46.9369   33.0161 H   0  0  0  0  0  0  0  0  0  0  0  0
    9.3645   43.8355   31.4711 H   0  0  0  0  0  0  0  0  0  0  0  0
   10.7411   44.9080   31.1837 H   0  0  0  0  0  0  0  0  0  0  0  0
    7.0152   44.7135   31.5825 H   0  0  0  0  0  0  0  0  0  0  0  0
   10.3463   47.1872   30.4043 H   0  0  0  0  0  0  0  0  0  0  0  0
    5.4707   46.2747   30.5063 H   0  0  0  0  0  0  0  0  0  0  0  0
    8.7917   48.7689   29.3402 H   0  0  0  0  0  0  0  0  0  0  0  0
    4.3903   47.6033   28.9401 H   0  0  0  0  0  0  0  0  0  0  0  0
    4.6131   50.6210   28.4319 H   0  0  0  0  0  0  0  0  0  0  0  0
    3.1021   49.6366   28.3009 H   0  0  0  0  0  0  0  0  0  0  0  0
    4.5092   49.2902   27.2301 H   0  0  0  0  0  0  0  0  0  0  0  0
    3.0708   47.0675   30.7782 H   0  0  0  0  0  0  0  0  0  0  0  0
    4.2170   51.2762   33.1963 H   0  0  0  0  0  0  0  0  0  0  0  0
    0.6303   48.4806   34.5928 H   0  0  0  0  0  0  0  0  0  0  0  0
    2.0521   47.6480   35.3839 H   0  0  0  0  0  0  0  0  0  0  0  0
    9.8298   40.7409   31.7611 H   0  0  0  0  0  0  0  0  0  0  0  0
   11.3967   41.5459   31.4726 H   0  0  0  0  0  0  0  0  0  0  0  0
   11.6975   39.5066   30.3481 H   0  0  0  0  0  0  0  0  0  0  0  0
   10.1076   38.2647   32.6646 H   0  0  0  0  0  0  0  0  0  0  0  0
   13.6621   37.4468   31.2209 H   0  0  0  0  0  0  0  0  0  0  0  0
    8.8974   38.6942   30.8832 H   0  0  0  0  0  0  0  0  0  0  0  0
   11.2806   36.3073   32.5170 H   0  0  0  0  0  0  0  0  0  0  0  0
   10.8493   35.7110   30.4586 H   0  0  0  0  0  0  0  0  0  0  0  0
   12.3290   38.3524   34.7444 H   0  0  0  0  0  0  0  0  0  0  0  0
   16.7559   34.1780   32.4619 H   0  0  0  0  0  0  0  0  0  0  0  0
   16.6344   34.5301   37.1414 H   0  0  0  0  0  0  0  0  0  0  0  0
   15.3532   35.7362   37.5137 H   0  0  0  0  0  0  0  0  0  0  0  0
  1  2  2  0
  1  3  1  0
  3  4  1  0
  4  5  1  0
  6  1  1  0
  7  6  1  0
  6  8  1  0
  8  9  1  0
  9 10  2  0
 11  9  1  0
 10 12  1  0
 13 11  2  0
 12 14  2  0
 14 13  1  0
 14 15  1  0
 15 16  1  0
 16 17  1  0
 16 18  1  0
 18 19  2  0
 20 18  1  0
 19 21  1  0
 22 20  2  0
 20 23  1  0
 21 24  1  0
 21 25  2  0
 25 22  1  0
 23 26  1  0
 23 27  2  0
 24 28  1  0
 25 29  1  0
 28 29  1  0
  4 30  2  0
  4 31  1  0
 32 31  1  0
 32 33  1  0
 33 34  1  0
 33 35  1  0
 34 36  1  0
 35 37  1  0
 35 38  1  0
 38 36  1  0
 36 39  1  0
 38 40  1  0
 41 39  1  0
 42 39  1  0
 43 41  2  0
 41 44  1  0
 45 42  2  0
 46 43  1  0
 44 47  2  0
 44 45  1  0
 48 46  2  0
 48 47  1  0
 47 49  1  0
  6 50  1  1
  7 51  1  0
  7 52  1  0
  8 53  1  0
  8 54  1  0
 10 55  1  0
 11 56  1  0
 12 57  1  0
 13 58  1  0
 16 59  1  6
 17 60  1  0
 17 61  1  0
 17 62  1  0
 19 63  1  0
 22 64  1  0
 28 65  1  0
 28 66  1  0
 32 67  1  0
 32 68  1  0
 33 69  1  0
 35 70  1  0
 36 71  1  0
 37 72  1  0
 38 73  1  0
 40 74  1  0
 42 75  1  0
 46 76  1  0
 49 77  1  0
 49 78  1  0
M  CHG  3   5  -1  23   1  26  -1
M  END
>  <EmbedRMS>  (80) 
0.0827572413695

$$$$

     RDKit          3D

 78 83  0  0  0  0  0  0  0  0999 V2000
   10.2835   43.7662   33.8256 C   0  0  0  0  0  0  0  0  0  0  0  0
   11.4102   43.5930   34.3752 O   0  0  0  0  0  0  0  0  0  0  0  0
    9.3637   42.7255   33.7348 O   0  0  0  0  0  0  0  0  0  0  0  0
    9.8906   41.2266   34.2933 P   0  0  0  0  0  0  0  0  0  0  0  0
   10.3743   41.4557   35.8827 O   0  0  0  0  0  0  0  0  0  0  0  0
    9.9547   45.0696   33.2037 C   0  0  1  0  0  0  0  0  0  0  0  0
   11.0273   46.0323   33.4761 N   0  0  0  0  0  0  0  0  0  0  0  0
    9.7471   44.8486   31.6877 C   0  0  0  0  0  0  0  0  0  0  0  0
    8.7926   45.8412   31.0847 C   0  0  0  0  0  0  0  0  0  0  0  0
    7.4060   45.6008   31.0988 C   0  0  0  0  0  0  0  0  0  0  0  0
    9.2817   46.9876   30.4415 C   0  0  0  0  0  0  0  0  0  0  0  0
    6.5247   46.5004   30.4836 C   0  0  0  0  0  0  0  0  0  0  0  0
    8.4004   47.8874   29.8314 C   0  0  0  0  0  0  0  0  0  0  0  0
    7.0182   47.6579   29.8483 C   0  0  0  0  0  0  0  0  0  0  0  0
    6.1829   48.5989   29.2239 O   0  0  0  0  0  0  0  0  0  0  0  0
    4.7553   48.6015   29.2651 C   0  0  2  0  0  0  0  0  0  0  0  0
    4.2168   49.6040   28.2437 C   0  0  0  0  0  0  0  0  0  0  0  0
    4.2376   48.9119   30.6633 C   0  0  0  0  0  0  0  0  0  0  0  0
    3.3491   47.9830   31.2597 C   0  0  0  0  0  0  0  0  0  0  0  0
    4.5583   50.1216   31.3717 C   0  0  0  0  0  0  0  0  0  0  0  0
    2.8215   48.2726   32.5108 C   0  0  0  0  0  0  0  0  0  0  0  0
    3.9766   50.3683   32.6350 C   0  0  0  0  0  0  0  0  0  0  0  0
    5.4344   51.1170   30.8261 N   0  0  0  0  0  0  0  0  0  0  0  0
    1.9487   47.5175   33.2704 O   0  0  0  0  0  0  0  0  0  0  0  0
    3.1207   49.4153   33.1687 C   0  0  0  0  0  0  0  0  0  0  0  0
    5.0753   52.4431   30.8964 O   0  0  0  0  0  0  0  0  0  0  0  0
    6.6165   50.8294   30.5521 O   0  0  0  0  0  0  0  0  0  0  0  0
    1.6857   48.2338   34.4847 C   0  0  0  0  0  0  0  0  0  0  0  0
    2.4535   49.4404   34.3783 O   0  0  0  0  0  0  0  0  0  0  0  0
    8.8122   40.1851   34.2127 O   0  0  0  0  0  0  0  0  0  0  0  0
   11.2407   40.7945   33.3671 O   0  0  0  0  0  0  0  0  0  0  0  0
   10.9135   40.6866   31.9954 C   0  0  0  0  0  0  0  0  0  0  0  0
   11.5167   39.3787   31.4404 C   0  0  0  0  0  0  0  0  0  0  0  0
   12.7486   39.0849   32.0734 O   0  0  0  0  0  0  0  0  0  0  0  0
   10.6039   38.1884   31.6669 C   0  0  0  0  0  0  0  0  0  0  0  0
   12.9329   37.6775   32.0284 C   0  0  0  0  0  0  0  0  0  0  0  0
    9.6374   38.0938   30.6485 O   0  0  0  0  0  0  0  0  0  0  0  0
   11.5737   37.0141   31.7056 C   0  0  0  0  0  0  0  0  0  0  0  0
   13.4853   37.2120   33.3238 N   0  0  0  0  0  0  0  0  0  0  0  0
   11.6209   36.3379   30.4684 O   0  0  0  0  0  0  0  0  0  0  0  0
   14.4804   36.3319   33.5726 C   0  0  0  0  0  0  0  0  0  0  0  0
   13.1140   37.6275   34.5689 C   0  0  0  0  0  0  0  0  0  0  0  0
   15.2075   35.6152   32.6740 N   0  0  0  0  0  0  0  0  0  0  0  0
   14.6761   36.2307   34.9181 C   0  0  0  0  0  0  0  0  0  0  0  0
   13.8218   37.0451   35.5783 N   0  0  0  0  0  0  0  0  0  0  0  0
   16.1641   34.7600   33.1548 C   0  0  0  0  0  0  0  0  0  0  0  0
   15.6528   35.3507   35.4131 C   0  0  0  0  0  0  0  0  0  0  0  0
   16.3795   34.6315   34.5043 N   0  0  0  0  0  0  0  0  0  0  0  0
   15.9001   35.1933   36.8090 N   0  0  0  0  0  0  0  0  0  0  0  0
    9.0120   45.4318   33.6714 H   0  0  0  0  0  0  0  0  0  0  0  0
   11.8908   45.7660   32.9477 H   0  0  0  0  0  0  0  0  0  0  0  0
   10.7260   46.9689   33.1217 H   0  0  0  0  0  0  0  0  0  0  0  0
    9.3426   43.8333   31.4758 H   0  0  0  0  0  0  0  0  0  0  0  0
   10.7236   44.8826   31.1559 H   0  0  0  0  0  0  0  0  0  0  0  0
    7.0106   44.7139   31.5786 H   0  0  0  0  0  0  0  0  0  0  0  0
   10.3460   47.1860   30.4095 H   0  0  0  0  0  0  0  0  0  0  0  0
    5.4690   46.2774   30.5032 H   0  0  0  0  0  0  0  0  0  0  0  0
    8.7936   48.7700   29.3428 H   0  0  0  0  0  0  0  0  0  0  0  0
    4.3947   47.6037   28.9293 H   0  0  0  0  0  0  0  0  0  0  0  0
    4.5194   49.2923   27.2214 H   0  0  0  0  0  0  0  0  0  0  0  0
    4.6163   50.6222   28.4249 H   0  0  0  0  0  0  0  0  0  0  0  0
    3.1070   49.6361   28.2860 H   0  0  0  0  0  0  0  0  0  0  0  0
    3.0662   47.0652   30.7601 H   0  0  0  0  0  0  0  0  0  0  0  0
    4.1964   51.2728   33.1876 H   0  0  0  0  0  0  0  0  0  0  0  0
    2.0228   47.6412   35.3609 H   0  0  0  0  0  0  0  0  0  0  0  0
    0.6045   48.4733   34.5628 H   0  0  0  0  0  0  0  0  0  0  0  0
   11.3828   41.5438   31.4669 H   0  0  0  0  0  0  0  0  0  0  0  0
    9.8226   40.7225   31.7631 H   0  0  0  0  0  0  0  0  0  0  0  0
   11.6979   39.5037   30.3478 H   0  0  0  0  0  0  0  0  0  0  0  0
   10.1084   38.2787   32.6627 H   0  0  0  0  0  0  0  0  0  0  0  0
   13.6638   37.4472   31.2214 H   0  0  0  0  0  0  0  0  0  0  0  0
    8.9763   37.4191   30.9532 H   0  0  0  0  0  0  0  0  0  0  0  0
   11.2821   36.3054   32.5172 H   0  0  0  0  0  0  0  0  0  0  0  0
   10.8657   35.6935   30.4653 H   0  0  0  0  0  0  0  0  0  0  0  0
   12.3293   38.3523   34.7445 H   0  0  0  0  0  0  0  0  0  0  0  0
   16.7561   34.1778   32.4621 H   0  0  0  0  0  0  0  0  0  0  0  0
   15.3533   35.7361   37.5138 H   0  0  0  0  0  0  0  0  0  0  0  0
   16.6345   34.5300   37.1416 H   0  0  0  0  0  0  0  0  0  0  0  0
  1  2  2  0
  1  3  1  0
  3  4  1  0
  4  5  1  0
  6  1  1  0
  7  6  1  0
  6  8  1  0
  8  9  1  0
  9 10  2  0
 11  9  1  0
 10 12  1  0
 13 11  2  0
 12 14  2  0
 14 13  1  0
 14 15  1  0
 15 16  1  0
 16 17  1  0
 16 18  1  0
 18 19  2  0
 20 18  1  0
 19 21  1  0
 22 20  2  0
 20 23  1  0
 21 24  1  0
 21 25  2  0
 25 22  1  0
 23 26  1  0
 23 27  2  0
 24 28  1  0
 25 29  1  0
 28 29  1  0
  4 30  2  0
  4 31  1  0
 32 31  1  0
 32 33  1  0
 33 34  1  0
 33 35  1  0
 34 36  1  0
 35 37  1  0
 35 38  1  0
 38 36  1  0
 36 39  1  0
 38 40  1  0
 41 39  1  0
 42 39  1  0
 43 41  2  0
 41 44  1  0
 45 42  2  0
 46 43  1  0
 44 47  2  0
 44 45  1  0
 48 46  2  0
 48 47  1  0
 47 49  1  0
  6 50  1  1
  7 51  1  0
  7 52  1  0
  8 53  1  0
  8 54  1  0
 10 55  1  0
 11 56  1  0
 12 57  1  0
 13 58  1  0
 16 59  1  6
 17 60  1  0
 17 61  1  0
 17 62  1  0
 19 63  1  0
 22 64  1  0
 28 65  1  0
 28 66  1  0
 32 67  1  0
 32 68  1  0
 33 69  1  0
 35 70  1  0
 36 71  1  0
 37 72  1  0
 38 73  1  0
 40 74  1  0
 42 75  1  0
 46 76  1  0
 49 77  1  0
 49 78  1  0
M  CHG  3   5  -1  23   1  26  -1
M  END
>  <EmbedRMS>  (81) 
0.0825450117741

$$$$

     RDKit          3D

 78 83  0  0  0  0  0  0  0  0999 V2000
   10.2838   43.7627   33.8277 C   0  0  0  0  0  0  0  0  0  0  0  0
   11.4103   43.5863   34.3766 O   0  0  0  0  0  0  0  0  0  0  0  0
    9.3628   42.7238   33.7357 O   0  0  0  0  0  0  0  0  0  0  0  0
    9.8890   41.2252   34.2949 P   0  0  0  0  0  0  0  0  0  0  0  0
   10.3724   41.4548   35.8843 O   0  0  0  0  0  0  0  0  0  0  0  0
    9.9549   45.0701   33.2065 C   0  0  1  0  0  0  0  0  0  0  0  0
   11.0198   46.0482   33.4572 N   0  0  0  0  0  0  0  0  0  0  0  0
    9.7506   44.8513   31.6924 C   0  0  0  0  0  0  0  0  0  0  0  0
    8.7944   45.8421   31.0873 C   0  0  0  0  0  0  0  0  0  0  0  0
    7.4079   45.6003   31.0999 C   0  0  0  0  0  0  0  0  0  0  0  0
    9.2827   46.9888   30.4440 C   0  0  0  0  0  0  0  0  0  0  0  0
    6.5260   46.4992   30.4841 C   0  0  0  0  0  0  0  0  0  0  0  0
    8.4009   47.8873   29.8322 C   0  0  0  0  0  0  0  0  0  0  0  0
    7.0188   47.6568   29.8480 C   0  0  0  0  0  0  0  0  0  0  0  0
    6.1830   48.5969   29.2226 O   0  0  0  0  0  0  0  0  0  0  0  0
    4.7552   48.5797   29.2384 C   0  0  2  0  0  0  0  0  0  0  0  0
    4.2226   49.5765   28.2086 C   0  0  0  0  0  0  0  0  0  0  0  0
    4.2111   48.8855   30.6264 C   0  0  0  0  0  0  0  0  0  0  0  0
    3.3061   47.9615   31.2044 C   0  0  0  0  0  0  0  0  0  0  0  0
    4.5303   50.0881   31.3427 C   0  0  0  0  0  0  0  0  0  0  0  0
    2.7621   48.2512   32.4489 C   0  0  0  0  0  0  0  0  0  0  0  0
    3.9349   50.3360   32.5993 C   0  0  0  0  0  0  0  0  0  0  0  0
    5.4295   51.0683   30.8108 N   0  0  0  0  0  0  0  0  0  0  0  0
    1.8717   47.5009   33.1927 O   0  0  0  0  0  0  0  0  0  0  0  0
    3.0622   49.3887   33.1163 C   0  0  0  0  0  0  0  0  0  0  0  0
    6.7637   50.7679   30.6733 O   0  0  0  0  0  0  0  0  0  0  0  0
    5.0734   52.2633   30.7568 O   0  0  0  0  0  0  0  0  0  0  0  0
    1.5976   48.2146   34.4061 C   0  0  0  0  0  0  0  0  0  0  0  0
    2.3778   49.4147   34.3162 O   0  0  0  0  0  0  0  0  0  0  0  0
    8.8112   40.1834   34.2131 O   0  0  0  0  0  0  0  0  0  0  0  0
   11.2398   40.7938   33.3702 O   0  0  0  0  0  0  0  0  0  0  0  0
   10.9144   40.6912   31.9983 C   0  0  0  0  0  0  0  0  0  0  0  0
   11.5270   39.3911   31.4385 C   0  0  0  0  0  0  0  0  0  0  0  0
   12.7520   39.0911   32.0836 O   0  0  0  0  0  0  0  0  0  0  0  0
   10.6113   38.1931   31.6451 C   0  0  0  0  0  0  0  0  0  0  0  0
   12.9413   37.6837   32.0297 C   0  0  0  0  0  0  0  0  0  0  0  0
    9.6064   38.0877   30.6599 O   0  0  0  0  0  0  0  0  0  0  0  0
   11.5822   37.0197   31.6876 C   0  0  0  0  0  0  0  0  0  0  0  0
   13.4840   37.2104   33.3254 N   0  0  0  0  0  0  0  0  0  0  0  0
   11.6179   36.3071   30.4690 O   0  0  0  0  0  0  0  0  0  0  0  0
   14.4797   36.3309   33.5738 C   0  0  0  0  0  0  0  0  0  0  0  0
   13.1136   37.6269   34.5702 C   0  0  0  0  0  0  0  0  0  0  0  0
   15.2074   35.6152   32.6747 N   0  0  0  0  0  0  0  0  0  0  0  0
   14.6756   36.2298   34.9190 C   0  0  0  0  0  0  0  0  0  0  0  0
   13.8217   37.0445   35.5793 N   0  0  0  0  0  0  0  0  0  0  0  0
   16.1643   34.7603   33.1551 C   0  0  0  0  0  0  0  0  0  0  0  0
   15.6528   35.3503   35.4136 C   0  0  0  0  0  0  0  0  0  0  0  0
   16.3798   34.6316   34.5046 N   0  0  0  0  0  0  0  0  0  0  0  0
   15.9004   35.1930   36.8094 N   0  0  0  0  0  0  0  0  0  0  0  0
    9.0098   45.4350   33.6670 H   0  0  0  0  0  0  0  0  0  0  0  0
   11.9349   45.6934   33.0930 H   0  0  0  0  0  0  0  0  0  0  0  0
   11.1131   46.1993   34.4885 H   0  0  0  0  0  0  0  0  0  0  0  0
    9.3518   43.8346   31.4760 H   0  0  0  0  0  0  0  0  0  0  0  0
   10.7309   44.8933   31.1678 H   0  0  0  0  0  0  0  0  0  0  0  0
    7.0130   44.7135   31.5802 H   0  0  0  0  0  0  0  0  0  0  0  0
   10.3467   47.1889   30.4140 H   0  0  0  0  0  0  0  0  0  0  0  0
    5.4702   46.2764   30.5052 H   0  0  0  0  0  0  0  0  0  0  0  0
    8.7939   48.7698   29.3434 H   0  0  0  0  0  0  0  0  0  0  0  0
    4.4122   47.5773   28.8975 H   0  0  0  0  0  0  0  0  0  0  0  0
    4.5467   49.2695   27.1915 H   0  0  0  0  0  0  0  0  0  0  0  0
    4.6074   50.5989   28.3982 H   0  0  0  0  0  0  0  0  0  0  0  0
    3.1119   49.5958   28.2316 H   0  0  0  0  0  0  0  0  0  0  0  0
    3.0251   47.0475   30.6967 H   0  0  0  0  0  0  0  0  0  0  0  0
    4.1565   51.2367   33.1576 H   0  0  0  0  0  0  0  0  0  0  0  0
    0.5176   48.4636   34.4697 H   0  0  0  0  0  0  0  0  0  0  0  0
    1.9165   47.6153   35.2846 H   0  0  0  0  0  0  0  0  0  0  0  0
    9.8235   40.7202   31.7651 H   0  0  0  0  0  0  0  0  0  0  0  0
   11.3780   41.5548   31.4750 H   0  0  0  0  0  0  0  0  0  0  0  0
   11.7311   39.5363   30.3532 H   0  0  0  0  0  0  0  0  0  0  0  0
   10.1202   38.2695   32.6410 H   0  0  0  0  0  0  0  0  0  0  0  0
   13.6850   37.4638   31.2321 H   0  0  0  0  0  0  0  0  0  0  0  0
   10.0251   38.1792   29.7654 H   0  0  0  0  0  0  0  0  0  0  0  0
   11.2757   36.3135   32.4907 H   0  0  0  0  0  0  0  0  0  0  0  0
   11.9839   36.9111   29.7708 H   0  0  0  0  0  0  0  0  0  0  0  0
   12.3307   38.3536   34.7457 H   0  0  0  0  0  0  0  0  0  0  0  0
   16.7566   34.1786   32.4623 H   0  0  0  0  0  0  0  0  0  0  0  0
   16.6353   34.5301   37.1418 H   0  0  0  0  0  0  0  0  0  0  0  0
   15.3535   35.7355   37.5144 H   0  0  0  0  0  0  0  0  0  0  0  0
  1  2  2  0
  1  3  1  0
  3  4  1  0
  4  5  1  0
  6  1  1  0
  7  6  1  0
  6  8  1  0
  8  9  1  0
  9 10  2  0
 11  9  1  0
 10 12  1  0
 13 11  2  0
 12 14  2  0
 14 13  1  0
 14 15  1  0
 15 16  1  0
 16 17  1  0
 16 18  1  0
 18 19  2  0
 20 18  1  0
 19 21  1  0
 22 20  2  0
 20 23  1  0
 21 24  1  0
 21 25  2  0
 25 22  1  0
 23 26  1  0
 23 27  2  0
 24 28  1  0
 25 29  1  0
 28 29  1  0
  4 30  2  0
  4 31  1  0
 32 31  1  0
 32 33  1  0
 33 34  1  0
 33 35  1  0
 34 36  1  0
 35 37  1  0
 35 38  1  0
 38 36  1  0
 36 39  1  0
 38 40  1  0
 41 39  1  0
 42 39  1  0
 43 41  2  0
 41 44  1  0
 45 42  2  0
 46 43  1  0
 44 47  2  0
 44 45  1  0
 48 46  2  0
 48 47  1  0
 47 49  1  0
  6 50  1  1
  7 51  1  0
  7 52  1  0
  8 53  1  0
  8 54  1  0
 10 55  1  0
 11 56  1  0
 12 57  1  0
 13 58  1  0
 16 59  1  6
 17 60  1  0
 17 61  1  0
 17 62  1  0
 19 63  1  0
 22 64  1  0
 28 65  1  0
 28 66  1  0
 32 67  1  0
 32 68  1  0
 33 69  1  0
 35 70  1  0
 36 71  1  0
 37 72  1  0
 38 73  1  0
 40 74  1  0
 42 75  1  0
 46 76  1  0
 49 77  1  0
 49 78  1  0
M  CHG  3   5  -1  23   1  26  -1
M  END
>  <EmbedRMS>  (82) 
0.0817220993854

$$$$

     RDKit          3D

 78 83  0  0  0  0  0  0  0  0999 V2000
   10.2839   43.7626   33.8275 C   0  0  0  0  0  0  0  0  0  0  0  0
   11.4103   43.5863   34.3766 O   0  0  0  0  0  0  0  0  0  0  0  0
    9.3631   42.7236   33.7354 O   0  0  0  0  0  0  0  0  0  0  0  0
    9.8895   41.2249   34.2944 P   0  0  0  0  0  0  0  0  0  0  0  0
   10.3727   41.4546   35.8838 O   0  0  0  0  0  0  0  0  0  0  0  0
    9.9548   45.0699   33.2063 C   0  0  1  0  0  0  0  0  0  0  0  0
   11.0198   46.0480   33.4567 N   0  0  0  0  0  0  0  0  0  0  0  0
    9.7500   44.8508   31.6923 C   0  0  0  0  0  0  0  0  0  0  0  0
    8.7942   45.8418   31.0869 C   0  0  0  0  0  0  0  0  0  0  0  0
    7.4073   45.6012   31.1003 C   0  0  0  0  0  0  0  0  0  0  0  0
    9.2832   46.9892   30.4450 C   0  0  0  0  0  0  0  0  0  0  0  0
    6.5279   46.5022   30.4847 C   0  0  0  0  0  0  0  0  0  0  0  0
    8.4038   47.8903   29.8331 C   0  0  0  0  0  0  0  0  0  0  0  0
    7.0147   47.6509   29.8463 C   0  0  0  0  0  0  0  0  0  0  0  0
    6.0892   48.5146   29.2373 O   0  0  0  0  0  0  0  0  0  0  0  0
    6.4213   49.6840   28.4855 C   0  0  2  0  0  0  0  0  0  0  0  0
    5.1590   50.5005   28.2104 C   0  0  0  0  0  0  0  0  0  0  0  0
    7.1367   49.3500   27.1843 C   0  0  0  0  0  0  0  0  0  0  0  0
    8.1093   50.2719   26.7268 C   0  0  0  0  0  0  0  0  0  0  0  0
    6.9118   48.1416   26.4357 C   0  0  0  0  0  0  0  0  0  0  0  0
    8.8345   49.9642   25.5839 C   0  0  0  0  0  0  0  0  0  0  0  0
    7.6941   47.8771   25.2888 C   0  0  0  0  0  0  0  0  0  0  0  0
    5.9231   47.1732   26.8187 N   0  0  0  0  0  0  0  0  0  0  0  0
    9.8268   50.7049   24.9710 O   0  0  0  0  0  0  0  0  0  0  0  0
    8.6387   48.8158   24.8978 C   0  0  0  0  0  0  0  0  0  0  0  0
    6.1940   45.8314   26.6798 O   0  0  0  0  0  0  0  0  0  0  0  0
    4.7524   47.5276   27.0624 O   0  0  0  0  0  0  0  0  0  0  0  0
   10.2817   49.9720   23.8252 C   0  0  0  0  0  0  0  0  0  0  0  0
    9.4966   48.7720   23.8157 O   0  0  0  0  0  0  0  0  0  0  0  0
    8.8114   40.1833   34.2129 O   0  0  0  0  0  0  0  0  0  0  0  0
   11.2402   40.7930   33.3696 O   0  0  0  0  0  0  0  0  0  0  0  0
   10.9151   40.6903   31.9975 C   0  0  0  0  0  0  0  0  0  0  0  0
   11.5252   39.3885   31.4375 C   0  0  0  0  0  0  0  0  0  0  0  0
   12.7500   39.0873   32.0798 O   0  0  0  0  0  0  0  0  0  0  0  0
   10.6092   38.1925   31.6469 C   0  0  0  0  0  0  0  0  0  0  0  0
   12.9332   37.6792   32.0294 C   0  0  0  0  0  0  0  0  0  0  0  0
    9.6122   38.0894   30.6542 O   0  0  0  0  0  0  0  0  0  0  0  0
   11.5743   37.0144   31.7024 C   0  0  0  0  0  0  0  0  0  0  0  0
   13.4844   37.2107   33.3241 N   0  0  0  0  0  0  0  0  0  0  0  0
   11.6298   36.3239   30.4740 O   0  0  0  0  0  0  0  0  0  0  0  0
   14.4802   36.3313   33.5727 C   0  0  0  0  0  0  0  0  0  0  0  0
   13.1138   37.6266   34.5692 C   0  0  0  0  0  0  0  0  0  0  0  0
   15.2075   35.6149   32.6739 N   0  0  0  0  0  0  0  0  0  0  0  0
   14.6761   36.2303   34.9182 C   0  0  0  0  0  0  0  0  0  0  0  0
   13.8220   37.0446   35.5785 N   0  0  0  0  0  0  0  0  0  0  0  0
   16.1643   34.7600   33.1547 C   0  0  0  0  0  0  0  0  0  0  0  0
   15.6529   35.3505   35.4130 C   0  0  0  0  0  0  0  0  0  0  0  0
   16.3798   34.6315   34.5042 N   0  0  0  0  0  0  0  0  0  0  0  0
   15.9003   35.1932   36.8090 N   0  0  0  0  0  0  0  0  0  0  0  0
    9.0099   45.4349   33.6671 H   0  0  0  0  0  0  0  0  0  0  0  0
   11.1136   46.1991   34.4880 H   0  0  0  0  0  0  0  0  0  0  0  0
   11.9348   45.6932   33.0922 H   0  0  0  0  0  0  0  0  0  0  0  0
    9.3507   43.8343   31.4762 H   0  0  0  0  0  0  0  0  0  0  0  0
   10.7303   44.8921   31.1673 H   0  0  0  0  0  0  0  0  0  0  0  0
    7.0108   44.7159   31.5819 H   0  0  0  0  0  0  0  0  0  0  0  0
   10.3475   47.1881   30.4165 H   0  0  0  0  0  0  0  0  0  0  0  0
    5.4638   46.3036   30.4992 H   0  0  0  0  0  0  0  0  0  0  0  0
    8.8172   48.7648   29.3515 H   0  0  0  0  0  0  0  0  0  0  0  0
    7.0750   50.3232   29.1209 H   0  0  0  0  0  0  0  0  0  0  0  0
    4.4567   49.9531   27.5507 H   0  0  0  0  0  0  0  0  0  0  0  0
    5.4267   51.4618   27.7218 H   0  0  0  0  0  0  0  0  0  0  0  0
    4.6433   50.7269   29.1676 H   0  0  0  0  0  0  0  0  0  0  0  0
    8.3058   51.1958   27.2564 H   0  0  0  0  0  0  0  0  0  0  0  0
    7.5552   46.9738   24.7088 H   0  0  0  0  0  0  0  0  0  0  0  0
   10.1001   50.5561   22.8988 H   0  0  0  0  0  0  0  0  0  0  0  0
   11.3588   49.7244   23.9306 H   0  0  0  0  0  0  0  0  0  0  0  0
    9.8243   40.7217   31.7640 H   0  0  0  0  0  0  0  0  0  0  0  0
   11.3805   41.5528   31.4739 H   0  0  0  0  0  0  0  0  0  0  0  0
   11.7265   39.5311   30.3512 H   0  0  0  0  0  0  0  0  0  0  0  0
   10.1110   38.2746   32.6387 H   0  0  0  0  0  0  0  0  0  0  0  0
   13.6652   37.4518   31.2226 H   0  0  0  0  0  0  0  0  0  0  0  0
   10.0511   38.1143   29.7644 H   0  0  0  0  0  0  0  0  0  0  0  0
   11.2762   36.3141   32.5189 H   0  0  0  0  0  0  0  0  0  0  0  0
   10.8593   35.6977   30.4639 H   0  0  0  0  0  0  0  0  0  0  0  0
   12.3294   38.3517   34.7449 H   0  0  0  0  0  0  0  0  0  0  0  0
   16.7564   34.1780   32.4620 H   0  0  0  0  0  0  0  0  0  0  0  0
   15.3534   35.7359   37.5138 H   0  0  0  0  0  0  0  0  0  0  0  0
   16.6349   34.5300   37.1416 H   0  0  0  0  0  0  0  0  0  0  0  0
  1  2  2  0
  1  3  1  0
  3  4  1  0
  4  5  1  0
  6  1  1  0
  7  6  1  0
  6  8  1  0
  8  9  1  0
  9 10  2  0
 11  9  1  0
 10 12  1  0
 13 11  2  0
 12 14  2  0
 14 13  1  0
 14 15  1  0
 15 16  1  0
 16 17  1  0
 16 18  1  0
 18 19  2  0
 20 18  1  0
 19 21  1  0
 22 20  2  0
 20 23  1  0
 21 24  1  0
 21 25  2  0
 25 22  1  0
 23 26  1  0
 23 27  2  0
 24 28  1  0
 25 29  1  0
 28 29  1  0
  4 30  2  0
  4 31  1  0
 32 31  1  0
 32 33  1  0
 33 34  1  0
 33 35  1  0
 34 36  1  0
 35 37  1  0
 35 38  1  0
 38 36  1  0
 36 39  1  0
 38 40  1  0
 41 39  1  0
 42 39  1  0
 43 41  2  0
 41 44  1  0
 45 42  2  0
 46 43  1  0
 44 47  2  0
 44 45  1  0
 48 46  2  0
 48 47  1  0
 47 49  1  0
  6 50  1  1
  7 51  1  0
  7 52  1  0
  8 53  1  0
  8 54  1  0
 10 55  1  0
 11 56  1  0
 12 57  1  0
 13 58  1  0
 16 59  1  1
 17 60  1  0
 17 61  1  0
 17 62  1  0
 19 63  1  0
 22 64  1  0
 28 65  1  0
 28 66  1  0
 32 67  1  0
 32 68  1  0
 33 69  1  0
 35 70  1  0
 36 71  1  0
 37 72  1  0
 38 73  1  0
 40 74  1  0
 42 75  1  0
 46 76  1  0
 49 77  1  0
 49 78  1  0
M  CHG  3   5  -1  23   1  26  -1
M  END
>  <EmbedRMS>  (83) 
0.082729920177

$$$$

     RDKit          3D

 78 83  0  0  0  0  0  0  0  0999 V2000
   10.2838   43.7627   33.8277 C   0  0  0  0  0  0  0  0  0  0  0  0
   11.4103   43.5864   34.3767 O   0  0  0  0  0  0  0  0  0  0  0  0
    9.3630   42.7237   33.7355 O   0  0  0  0  0  0  0  0  0  0  0  0
    9.8894   41.2249   34.2944 P   0  0  0  0  0  0  0  0  0  0  0  0
   10.3728   41.4546   35.8838 O   0  0  0  0  0  0  0  0  0  0  0  0
    9.9548   45.0700   33.2064 C   0  0  1  0  0  0  0  0  0  0  0  0
   11.0197   46.0482   33.4568 N   0  0  0  0  0  0  0  0  0  0  0  0
    9.7502   44.8506   31.6924 C   0  0  0  0  0  0  0  0  0  0  0  0
    8.7943   45.8413   31.0868 C   0  0  0  0  0  0  0  0  0  0  0  0
    7.4081   45.6008   31.0997 C   0  0  0  0  0  0  0  0  0  0  0  0
    9.2826   46.9884   30.4451 C   0  0  0  0  0  0  0  0  0  0  0  0
    6.5293   46.5020   30.4842 C   0  0  0  0  0  0  0  0  0  0  0  0
    8.4034   47.8896   29.8329 C   0  0  0  0  0  0  0  0  0  0  0  0
    7.0134   47.6533   29.8468 C   0  0  0  0  0  0  0  0  0  0  0  0
    6.0719   48.5198   29.2610 O   0  0  0  0  0  0  0  0  0  0  0  0
    6.3265   49.7353   28.5440 C   0  0  2  0  0  0  0  0  0  0  0  0
    6.9389   49.4182   27.1703 C   0  0  0  0  0  0  0  0  0  0  0  0
    7.0736   50.7540   29.4067 C   0  0  0  0  0  0  0  0  0  0  0  0
    8.2270   51.4226   28.9120 C   0  0  0  0  0  0  0  0  0  0  0  0
    6.6356   51.0336   30.7473 C   0  0  0  0  0  0  0  0  0  0  0  0
    8.9101   52.2879   29.7557 C   0  0  0  0  0  0  0  0  0  0  0  0
    7.3834   51.9145   31.5621 C   0  0  0  0  0  0  0  0  0  0  0  0
    5.4513   50.4307   31.2963 N   0  0  0  0  0  0  0  0  0  0  0  0
   10.0498   53.0226   29.4903 O   0  0  0  0  0  0  0  0  0  0  0  0
    8.5095   52.5196   31.0252 C   0  0  0  0  0  0  0  0  0  0  0  0
    4.2859   50.3916   30.5670 O   0  0  0  0  0  0  0  0  0  0  0  0
    5.4167   50.1085   32.5020 O   0  0  0  0  0  0  0  0  0  0  0  0
   10.3843   53.7630   30.6720 C   0  0  0  0  0  0  0  0  0  0  0  0
    9.3744   53.4127   31.6278 O   0  0  0  0  0  0  0  0  0  0  0  0
    8.8113   40.1834   34.2130 O   0  0  0  0  0  0  0  0  0  0  0  0
   11.2399   40.7932   33.3693 O   0  0  0  0  0  0  0  0  0  0  0  0
   10.9143   40.6896   31.9973 C   0  0  0  0  0  0  0  0  0  0  0  0
   11.5261   39.3884   31.4376 C   0  0  0  0  0  0  0  0  0  0  0  0
   12.7504   39.0887   32.0815 O   0  0  0  0  0  0  0  0  0  0  0  0
   10.6115   38.1909   31.6460 C   0  0  0  0  0  0  0  0  0  0  0  0
   12.9357   37.6812   32.0303 C   0  0  0  0  0  0  0  0  0  0  0  0
    9.6146   38.0858   30.6533 O   0  0  0  0  0  0  0  0  0  0  0  0
   11.5769   37.0148   31.7012 C   0  0  0  0  0  0  0  0  0  0  0  0
   13.4849   37.2112   33.3247 N   0  0  0  0  0  0  0  0  0  0  0  0
   11.6193   36.3260   30.4724 O   0  0  0  0  0  0  0  0  0  0  0  0
   14.4802   36.3313   33.5730 C   0  0  0  0  0  0  0  0  0  0  0  0
   13.1141   37.6268   34.5697 C   0  0  0  0  0  0  0  0  0  0  0  0
   15.2075   35.6151   32.6741 N   0  0  0  0  0  0  0  0  0  0  0  0
   14.6761   36.2300   34.9184 C   0  0  0  0  0  0  0  0  0  0  0  0
   13.8220   37.0445   35.5789 N   0  0  0  0  0  0  0  0  0  0  0  0
   16.1642   34.7600   33.1547 C   0  0  0  0  0  0  0  0  0  0  0  0
   15.6529   35.3503   35.4131 C   0  0  0  0  0  0  0  0  0  0  0  0
   16.3797   34.6314   34.5042 N   0  0  0  0  0  0  0  0  0  0  0  0
   15.9004   35.1930   36.8090 N   0  0  0  0  0  0  0  0  0  0  0  0
    9.0098   45.4350   33.6670 H   0  0  0  0  0  0  0  0  0  0  0  0
   11.9348   45.6933   33.0925 H   0  0  0  0  0  0  0  0  0  0  0  0
   11.1133   46.1995   34.4880 H   0  0  0  0  0  0  0  0  0  0  0  0
    9.3511   43.8341   31.4764 H   0  0  0  0  0  0  0  0  0  0  0  0
   10.7305   44.8922   31.1676 H   0  0  0  0  0  0  0  0  0  0  0  0
    7.0111   44.7160   31.5821 H   0  0  0  0  0  0  0  0  0  0  0  0
   10.3469   47.1880   30.4178 H   0  0  0  0  0  0  0  0  0  0  0  0
    5.4648   46.3053   30.5047 H   0  0  0  0  0  0  0  0  0  0  0  0
    8.8250   48.7602   29.3594 H   0  0  0  0  0  0  0  0  0  0  0  0
    5.3380   50.1869   28.3172 H   0  0  0  0  0  0  0  0  0  0  0  0
    6.3183   48.6537   26.6567 H   0  0  0  0  0  0  0  0  0  0  0  0
    7.9697   49.0213   27.2579 H   0  0  0  0  0  0  0  0  0  0  0  0
    6.9483   50.3283   26.5334 H   0  0  0  0  0  0  0  0  0  0  0  0
    8.6063   51.2710   27.9122 H   0  0  0  0  0  0  0  0  0  0  0  0
    7.0821   52.1357   32.5780 H   0  0  0  0  0  0  0  0  0  0  0  0
   10.3534   54.8531   30.4639 H   0  0  0  0  0  0  0  0  0  0  0  0
   11.3855   53.4607   31.0442 H   0  0  0  0  0  0  0  0  0  0  0  0
   11.3782   41.5525   31.4733 H   0  0  0  0  0  0  0  0  0  0  0  0
    9.8233   40.7192   31.7644 H   0  0  0  0  0  0  0  0  0  0  0  0
   11.7282   39.5312   30.3515 H   0  0  0  0  0  0  0  0  0  0  0  0
   10.1127   38.2733   32.6376 H   0  0  0  0  0  0  0  0  0  0  0  0
   13.6693   37.4565   31.2242 H   0  0  0  0  0  0  0  0  0  0  0  0
   10.0533   38.1117   29.7635 H   0  0  0  0  0  0  0  0  0  0  0  0
   11.2607   36.3147   32.5101 H   0  0  0  0  0  0  0  0  0  0  0  0
   12.1496   35.5022   30.6324 H   0  0  0  0  0  0  0  0  0  0  0  0
   12.3301   38.3524   34.7455 H   0  0  0  0  0  0  0  0  0  0  0  0
   16.7563   34.1780   32.4619 H   0  0  0  0  0  0  0  0  0  0  0  0
   15.3536   35.7356   37.5140 H   0  0  0  0  0  0  0  0  0  0  0  0
   16.6351   34.5298   37.1415 H   0  0  0  0  0  0  0  0  0  0  0  0
  1  2  2  0
  1  3  1  0
  3  4  1  0
  4  5  1  0
  6  1  1  0
  7  6  1  0
  6  8  1  0
  8  9  1  0
  9 10  2  0
 11  9  1  0
 10 12  1  0
 13 11  2  0
 12 14  2  0
 14 13  1  0
 14 15  1  0
 15 16  1  0
 16 17  1  0
 16 18  1  0
 18 19  2  0
 20 18  1  0
 19 21  1  0
 22 20  2  0
 20 23  1  0
 21 24  1  0
 21 25  2  0
 25 22  1  0
 23 26  1  0
 23 27  2  0
 24 28  1  0
 25 29  1  0
 28 29  1  0
  4 30  2  0
  4 31  1  0
 32 31  1  0
 32 33  1  0
 33 34  1  0
 33 35  1  0
 34 36  1  0
 35 37  1  0
 35 38  1  0
 38 36  1  0
 36 39  1  0
 38 40  1  0
 41 39  1  0
 42 39  1  0
 43 41  2  0
 41 44  1  0
 45 42  2  0
 46 43  1  0
 44 47  2  0
 44 45  1  0
 48 46  2  0
 48 47  1  0
 47 49  1  0
  6 50  1  1
  7 51  1  0
  7 52  1  0
  8 53  1  0
  8 54  1  0
 10 55  1  0
 11 56  1  0
 12 57  1  0
 13 58  1  0
 16 59  1  6
 17 60  1  0
 17 61  1  0
 17 62  1  0
 19 63  1  0
 22 64  1  0
 28 65  1  0
 28 66  1  0
 32 67  1  0
 32 68  1  0
 33 69  1  0
 35 70  1  0
 36 71  1  0
 37 72  1  0
 38 73  1  0
 40 74  1  0
 42 75  1  0
 46 76  1  0
 49 77  1  0
 49 78  1  0
M  CHG  3   5  -1  23   1  26  -1
M  END
>  <EmbedRMS>  (84) 
0.0825214184996

$$$$

     RDKit          3D

 78 83  0  0  0  0  0  0  0  0999 V2000
   10.2835   43.7661   33.8256 C   0  0  0  0  0  0  0  0  0  0  0  0
   11.4102   43.5930   34.3752 O   0  0  0  0  0  0  0  0  0  0  0  0
    9.3638   42.7255   33.7349 O   0  0  0  0  0  0  0  0  0  0  0  0
    9.8903   41.2267   34.2942 P   0  0  0  0  0  0  0  0  0  0  0  0
   10.3735   41.4561   35.8837 O   0  0  0  0  0  0  0  0  0  0  0  0
    9.9547   45.0694   33.2034 C   0  0  1  0  0  0  0  0  0  0  0  0
   11.0273   46.0321   33.4755 N   0  0  0  0  0  0  0  0  0  0  0  0
    9.7467   44.8479   31.6875 C   0  0  0  0  0  0  0  0  0  0  0  0
    8.7924   45.8405   31.0840 C   0  0  0  0  0  0  0  0  0  0  0  0
    7.4056   45.6017   31.0995 C   0  0  0  0  0  0  0  0  0  0  0  0
    9.2821   46.9878   30.4428 C   0  0  0  0  0  0  0  0  0  0  0  0
    6.5269   46.5038   30.4849 C   0  0  0  0  0  0  0  0  0  0  0  0
    8.4030   47.8904   29.8328 C   0  0  0  0  0  0  0  0  0  0  0  0
    7.0141   47.6520   29.8452 C   0  0  0  0  0  0  0  0  0  0  0  0
    6.0868   48.5182   29.2423 O   0  0  0  0  0  0  0  0  0  0  0  0
    6.4101   49.6695   28.4618 C   0  0  2  0  0  0  0  0  0  0  0  0
    5.1504   50.5090   28.2473 C   0  0  0  0  0  0  0  0  0  0  0  0
    7.0395   49.2804   27.1319 C   0  0  0  0  0  0  0  0  0  0  0  0
    8.2938   49.8484   26.7983 C   0  0  0  0  0  0  0  0  0  0  0  0
    6.3935   48.4151   26.1858 C   0  0  0  0  0  0  0  0  0  0  0  0
    8.8568   49.5431   25.5660 C   0  0  0  0  0  0  0  0  0  0  0  0
    7.0077   48.1518   24.9415 C   0  0  0  0  0  0  0  0  0  0  0  0
    5.1204   47.8164   26.4563 N   0  0  0  0  0  0  0  0  0  0  0  0
   10.0584   49.9769   25.0397 O   0  0  0  0  0  0  0  0  0  0  0  0
    8.2405   48.7319   24.6764 C   0  0  0  0  0  0  0  0  0  0  0  0
    5.0096   46.8618   27.4390 O   0  0  0  0  0  0  0  0  0  0  0  0
    4.1981   47.9322   25.6234 O   0  0  0  0  0  0  0  0  0  0  0  0
   10.2049   49.3979   23.7358 C   0  0  0  0  0  0  0  0  0  0  0  0
    9.0217   48.6106   23.5433 O   0  0  0  0  0  0  0  0  0  0  0  0
    8.8122   40.1850   34.2131 O   0  0  0  0  0  0  0  0  0  0  0  0
   11.2407   40.7939   33.3693 O   0  0  0  0  0  0  0  0  0  0  0  0
   10.9151   40.6905   31.9974 C   0  0  0  0  0  0  0  0  0  0  0  0
   11.5252   39.3886   31.4375 C   0  0  0  0  0  0  0  0  0  0  0  0
   12.7500   39.0874   32.0799 O   0  0  0  0  0  0  0  0  0  0  0  0
   10.6092   38.1926   31.6470 C   0  0  0  0  0  0  0  0  0  0  0  0
   12.9332   37.6793   32.0294 C   0  0  0  0  0  0  0  0  0  0  0  0
    9.6122   38.0895   30.6542 O   0  0  0  0  0  0  0  0  0  0  0  0
   11.5743   37.0145   31.7024 C   0  0  0  0  0  0  0  0  0  0  0  0
   13.4844   37.2108   33.3241 N   0  0  0  0  0  0  0  0  0  0  0  0
   11.6297   36.3239   30.4740 O   0  0  0  0  0  0  0  0  0  0  0  0
   14.4802   36.3313   33.5726 C   0  0  0  0  0  0  0  0  0  0  0  0
   13.1139   37.6267   34.5692 C   0  0  0  0  0  0  0  0  0  0  0  0
   15.2075   35.6149   32.6739 N   0  0  0  0  0  0  0  0  0  0  0  0
   14.6761   36.2303   34.9181 C   0  0  0  0  0  0  0  0  0  0  0  0
   13.8220   37.0447   35.5785 N   0  0  0  0  0  0  0  0  0  0  0  0
   16.1643   34.7600   33.1547 C   0  0  0  0  0  0  0  0  0  0  0  0
   15.6529   35.3505   35.4130 C   0  0  0  0  0  0  0  0  0  0  0  0
   16.3797   34.6315   34.5042 N   0  0  0  0  0  0  0  0  0  0  0  0
   15.9002   35.1932   36.8090 N   0  0  0  0  0  0  0  0  0  0  0  0
    9.0121   45.4317   33.6712 H   0  0  0  0  0  0  0  0  0  0  0  0
   10.7259   46.9687   33.1212 H   0  0  0  0  0  0  0  0  0  0  0  0
   11.8906   45.7658   32.9468 H   0  0  0  0  0  0  0  0  0  0  0  0
   10.7231   44.8813   31.1555 H   0  0  0  0  0  0  0  0  0  0  0  0
    9.3416   43.8327   31.4761 H   0  0  0  0  0  0  0  0  0  0  0  0
    7.0083   44.7172   31.5819 H   0  0  0  0  0  0  0  0  0  0  0  0
   10.3465   47.1862   30.4141 H   0  0  0  0  0  0  0  0  0  0  0  0
    5.4625   46.3071   30.5026 H   0  0  0  0  0  0  0  0  0  0  0  0
    8.8173   48.7678   29.3602 H   0  0  0  0  0  0  0  0  0  0  0  0
    7.1057   50.3087   29.0500 H   0  0  0  0  0  0  0  0  0  0  0  0
    4.7715   50.8683   29.2277 H   0  0  0  0  0  0  0  0  0  0  0  0
    5.3814   51.3934   27.6155 H   0  0  0  0  0  0  0  0  0  0  0  0
    4.3470   49.9173   27.7639 H   0  0  0  0  0  0  0  0  0  0  0  0
    8.8128   50.5167   27.4735 H   0  0  0  0  0  0  0  0  0  0  0  0
    6.5395   47.5058   24.2099 H   0  0  0  0  0  0  0  0  0  0  0  0
   11.1058   48.7501   23.7023 H   0  0  0  0  0  0  0  0  0  0  0  0
   10.2639   50.1956   22.9659 H   0  0  0  0  0  0  0  0  0  0  0  0
    9.8243   40.7216   31.7643 H   0  0  0  0  0  0  0  0  0  0  0  0
   11.3802   41.5529   31.4733 H   0  0  0  0  0  0  0  0  0  0  0  0
   11.7266   39.5311   30.3513 H   0  0  0  0  0  0  0  0  0  0  0  0
   10.1110   38.2747   32.6387 H   0  0  0  0  0  0  0  0  0  0  0  0
   13.6652   37.4519   31.2226 H   0  0  0  0  0  0  0  0  0  0  0  0
   10.0511   38.1143   29.7645 H   0  0  0  0  0  0  0  0  0  0  0  0
   11.2762   36.3141   32.5190 H   0  0  0  0  0  0  0  0  0  0  0  0
   10.8593   35.6978   30.4640 H   0  0  0  0  0  0  0  0  0  0  0  0
   12.3295   38.3518   34.7449 H   0  0  0  0  0  0  0  0  0  0  0  0
   16.7563   34.1779   32.4620 H   0  0  0  0  0  0  0  0  0  0  0  0
   16.6348   34.5300   37.1416 H   0  0  0  0  0  0  0  0  0  0  0  0
   15.3534   35.7359   37.5138 H   0  0  0  0  0  0  0  0  0  0  0  0
  1  2  2  0
  1  3  1  0
  3  4  1  0
  4  5  1  0
  6  1  1  0
  7  6  1  0
  6  8  1  0
  8  9  1  0
  9 10  2  0
 11  9  1  0
 10 12  1  0
 13 11  2  0
 12 14  2  0
 14 13  1  0
 14 15  1  0
 15 16  1  0
 16 17  1  0
 16 18  1  0
 18 19  2  0
 20 18  1  0
 19 21  1  0
 22 20  2  0
 20 23  1  0
 21 24  1  0
 21 25  2  0
 25 22  1  0
 23 26  1  0
 23 27  2  0
 24 28  1  0
 25 29  1  0
 28 29  1  0
  4 30  2  0
  4 31  1  0
 32 31  1  0
 32 33  1  0
 33 34  1  0
 33 35  1  0
 34 36  1  0
 35 37  1  0
 35 38  1  0
 38 36  1  0
 36 39  1  0
 38 40  1  0
 41 39  1  0
 42 39  1  0
 43 41  2  0
 41 44  1  0
 45 42  2  0
 46 43  1  0
 44 47  2  0
 44 45  1  0
 48 46  2  0
 48 47  1  0
 47 49  1  0
  6 50  1  1
  7 51  1  0
  7 52  1  0
  8 53  1  0
  8 54  1  0
 10 55  1  0
 11 56  1  0
 12 57  1  0
 13 58  1  0
 16 59  1  1
 17 60  1  0
 17 61  1  0
 17 62  1  0
 19 63  1  0
 22 64  1  0
 28 65  1  0
 28 66  1  0
 32 67  1  0
 32 68  1  0
 33 69  1  0
 35 70  1  0
 36 71  1  0
 37 72  1  0
 38 73  1  0
 40 74  1  0
 42 75  1  0
 46 76  1  0
 49 77  1  0
 49 78  1  0
M  CHG  3   5  -1  23   1  26  -1
M  END
>  <EmbedRMS>  (85) 
0.0818326060181

$$$$

     RDKit          3D

 78 83  0  0  0  0  0  0  0  0999 V2000
   10.2841   43.7625   33.8276 C   0  0  0  0  0  0  0  0  0  0  0  0
   11.4105   43.5862   34.3768 O   0  0  0  0  0  0  0  0  0  0  0  0
    9.3634   42.7234   33.7351 O   0  0  0  0  0  0  0  0  0  0  0  0
    9.8899   41.2246   34.2940 P   0  0  0  0  0  0  0  0  0  0  0  0
   10.3723   41.4544   35.8837 O   0  0  0  0  0  0  0  0  0  0  0  0
    9.9550   45.0699   33.2067 C   0  0  1  0  0  0  0  0  0  0  0  0
   11.0199   46.0481   33.4574 N   0  0  0  0  0  0  0  0  0  0  0  0
    9.7505   44.8514   31.6926 C   0  0  0  0  0  0  0  0  0  0  0  0
    8.7944   45.8427   31.0883 C   0  0  0  0  0  0  0  0  0  0  0  0
    7.4082   45.6003   31.0995 C   0  0  0  0  0  0  0  0  0  0  0  0
    9.2825   46.9887   30.4443 C   0  0  0  0  0  0  0  0  0  0  0  0
    6.5265   46.4989   30.4836 C   0  0  0  0  0  0  0  0  0  0  0  0
    8.4007   47.8862   29.8312 C   0  0  0  0  0  0  0  0  0  0  0  0
    7.0180   47.6581   29.8483 C   0  0  0  0  0  0  0  0  0  0  0  0
    6.1872   48.5987   29.2078 O   0  0  0  0  0  0  0  0  0  0  0  0
    4.7620   48.7394   29.3332 C   0  0  2  0  0  0  0  0  0  0  0  0
    4.3579   48.8416   30.8185 C   0  0  0  0  0  0  0  0  0  0  0  0
    3.9777   47.6761   28.5589 C   0  0  0  0  0  0  0  0  0  0  0  0
    4.6669   46.6810   27.8146 C   0  0  0  0  0  0  0  0  0  0  0  0
    2.5392   47.6638   28.5510 C   0  0  0  0  0  0  0  0  0  0  0  0
    3.9315   45.6830   27.1897 C   0  0  0  0  0  0  0  0  0  0  0  0
    1.8465   46.6110   27.9125 C   0  0  0  0  0  0  0  0  0  0  0  0
    1.7691   48.7188   29.1448 N   0  0  0  0  0  0  0  0  0  0  0  0
    4.3942   44.6155   26.4444 O   0  0  0  0  0  0  0  0  0  0  0  0
    2.5821   45.6432   27.2455 C   0  0  0  0  0  0  0  0  0  0  0  0
    0.5966   48.4219   29.8005 O   0  0  0  0  0  0  0  0  0  0  0  0
    2.0146   49.9086   28.8592 O   0  0  0  0  0  0  0  0  0  0  0  0
    3.2591   43.8557   26.0078 C   0  0  0  0  0  0  0  0  0  0  0  0
    2.1218   44.5478   26.5405 O   0  0  0  0  0  0  0  0  0  0  0  0
    8.8118   40.1831   34.2120 O   0  0  0  0  0  0  0  0  0  0  0  0
   11.2416   40.7932   33.3699 O   0  0  0  0  0  0  0  0  0  0  0  0
   10.9186   40.6909   31.9972 C   0  0  0  0  0  0  0  0  0  0  0  0
   11.5172   39.3814   31.4407 C   0  0  0  0  0  0  0  0  0  0  0  0
   12.7493   39.0855   32.0727 O   0  0  0  0  0  0  0  0  0  0  0  0
   10.6023   38.1907   31.6665 C   0  0  0  0  0  0  0  0  0  0  0  0
   12.9319   37.6781   32.0281 C   0  0  0  0  0  0  0  0  0  0  0  0
    9.6392   38.0797   30.6452 O   0  0  0  0  0  0  0  0  0  0  0  0
   11.5715   37.0165   31.7056 C   0  0  0  0  0  0  0  0  0  0  0  0
   13.4846   37.2121   33.3235 N   0  0  0  0  0  0  0  0  0  0  0  0
   11.6187   36.3383   30.4694 O   0  0  0  0  0  0  0  0  0  0  0  0
   14.4801   36.3321   33.5724 C   0  0  0  0  0  0  0  0  0  0  0  0
   13.1137   37.6275   34.5687 C   0  0  0  0  0  0  0  0  0  0  0  0
   15.2073   35.6153   32.6738 N   0  0  0  0  0  0  0  0  0  0  0  0
   14.6759   36.2308   34.9179 C   0  0  0  0  0  0  0  0  0  0  0  0
   13.8216   37.0452   35.5781 N   0  0  0  0  0  0  0  0  0  0  0  0
   16.1640   34.7602   33.1546 C   0  0  0  0  0  0  0  0  0  0  0  0
   15.6526   35.3508   35.4129 C   0  0  0  0  0  0  0  0  0  0  0  0
   16.3794   34.6317   34.5041 N   0  0  0  0  0  0  0  0  0  0  0  0
   15.8999   35.1935   36.8088 N   0  0  0  0  0  0  0  0  0  0  0  0
    9.0100   45.4346   33.6675 H   0  0  0  0  0  0  0  0  0  0  0  0
   11.9350   45.6933   33.0931 H   0  0  0  0  0  0  0  0  0  0  0  0
   11.1134   46.1991   34.4887 H   0  0  0  0  0  0  0  0  0  0  0  0
   10.7308   44.8935   31.1678 H   0  0  0  0  0  0  0  0  0  0  0  0
    9.3517   43.8348   31.4759 H   0  0  0  0  0  0  0  0  0  0  0  0
    7.0138   44.7099   31.5737 H   0  0  0  0  0  0  0  0  0  0  0  0
   10.3466   47.1884   30.4132 H   0  0  0  0  0  0  0  0  0  0  0  0
    5.4747   46.2601   30.4824 H   0  0  0  0  0  0  0  0  0  0  0  0
    8.7945   48.7667   29.3394 H   0  0  0  0  0  0  0  0  0  0  0  0
    4.5213   49.7159   28.8639 H   0  0  0  0  0  0  0  0  0  0  0  0
    4.0878   47.8535   31.2425 H   0  0  0  0  0  0  0  0  0  0  0  0
    3.4875   49.5158   30.9467 H   0  0  0  0  0  0  0  0  0  0  0  0
    5.1895   49.2734   31.4149 H   0  0  0  0  0  0  0  0  0  0  0  0
    5.7424   46.6673   27.7185 H   0  0  0  0  0  0  0  0  0  0  0  0
    0.7648   46.5717   27.9039 H   0  0  0  0  0  0  0  0  0  0  0  0
    3.2122   43.8382   24.8987 H   0  0  0  0  0  0  0  0  0  0  0  0
    3.3065   42.8247   26.4169 H   0  0  0  0  0  0  0  0  0  0  0  0
   11.3972   41.5459   31.4735 H   0  0  0  0  0  0  0  0  0  0  0  0
    9.8300   40.7410   31.7610 H   0  0  0  0  0  0  0  0  0  0  0  0
   11.6974   39.5067   30.3480 H   0  0  0  0  0  0  0  0  0  0  0  0
   10.1077   38.2647   32.6645 H   0  0  0  0  0  0  0  0  0  0  0  0
   13.6621   37.4467   31.2208 H   0  0  0  0  0  0  0  0  0  0  0  0
    8.8975   38.6944   30.8830 H   0  0  0  0  0  0  0  0  0  0  0  0
   11.2806   36.3073   32.5170 H   0  0  0  0  0  0  0  0  0  0  0  0
   10.8492   35.7110   30.4585 H   0  0  0  0  0  0  0  0  0  0  0  0
   12.3290   38.3524   34.7444 H   0  0  0  0  0  0  0  0  0  0  0  0
   16.7559   34.1780   32.4619 H   0  0  0  0  0  0  0  0  0  0  0  0
   15.3531   35.7362   37.5137 H   0  0  0  0  0  0  0  0  0  0  0  0
   16.6344   34.5301   37.1414 H   0  0  0  0  0  0  0  0  0  0  0  0
  1  2  2  0
  1  3  1  0
  3  4  1  0
  4  5  1  0
  6  1  1  0
  7  6  1  0
  6  8  1  0
  8  9  1  0
  9 10  2  0
 11  9  1  0
 10 12  1  0
 13 11  2  0
 12 14  2  0
 14 13  1  0
 14 15  1  0
 15 16  1  0
 16 17  1  0
 16 18  1  0
 18 19  2  0
 20 18  1  0
 19 21  1  0
 22 20  2  0
 20 23  1  0
 21 24  1  0
 21 25  2  0
 25 22  1  0
 23 26  1  0
 23 27  2  0
 24 28  1  0
 25 29  1  0
 28 29  1  0
  4 30  2  0
  4 31  1  0
 32 31  1  0
 32 33  1  0
 33 34  1  0
 33 35  1  0
 34 36  1  0
 35 37  1  0
 35 38  1  0
 38 36  1  0
 36 39  1  0
 38 40  1  0
 41 39  1  0
 42 39  1  0
 43 41  2  0
 41 44  1  0
 45 42  2  0
 46 43  1  0
 44 47  2  0
 44 45  1  0
 48 46  2  0
 48 47  1  0
 47 49  1  0
  6 50  1  1
  7 51  1  0
  7 52  1  0
  8 53  1  0
  8 54  1  0
 10 55  1  0
 11 56  1  0
 12 57  1  0
 13 58  1  0
 16 59  1  6
 17 60  1  0
 17 61  1  0
 17 62  1  0
 19 63  1  0
 22 64  1  0
 28 65  1  0
 28 66  1  0
 32 67  1  0
 32 68  1  0
 33 69  1  0
 35 70  1  0
 36 71  1  0
 37 72  1  0
 38 73  1  0
 40 74  1  0
 42 75  1  0
 46 76  1  0
 49 77  1  0
 49 78  1  0
M  CHG  3   5  -1  23   1  26  -1
M  END
>  <EmbedRMS>  (86) 
0.0837950949281

$$$$

     RDKit          3D

 78 83  0  0  0  0  0  0  0  0999 V2000
   10.2840   43.7626   33.8275 C   0  0  0  0  0  0  0  0  0  0  0  0
   11.4104   43.5863   34.3767 O   0  0  0  0  0  0  0  0  0  0  0  0
    9.3634   42.7234   33.7351 O   0  0  0  0  0  0  0  0  0  0  0  0
    9.8899   41.2247   34.2940 P   0  0  0  0  0  0  0  0  0  0  0  0
   10.3724   41.4545   35.8837 O   0  0  0  0  0  0  0  0  0  0  0  0
    9.9549   45.0699   33.2063 C   0  0  1  0  0  0  0  0  0  0  0  0
   11.0198   46.0481   33.4570 N   0  0  0  0  0  0  0  0  0  0  0  0
    9.7507   44.8510   31.6921 C   0  0  0  0  0  0  0  0  0  0  0  0
    8.7946   45.8415   31.0864 C   0  0  0  0  0  0  0  0  0  0  0  0
    7.4079   45.6008   31.1006 C   0  0  0  0  0  0  0  0  0  0  0  0
    9.2827   46.9892   30.4449 C   0  0  0  0  0  0  0  0  0  0  0  0
    6.5254   46.5003   30.4863 C   0  0  0  0  0  0  0  0  0  0  0  0
    8.4008   47.8884   29.8345 C   0  0  0  0  0  0  0  0  0  0  0  0
    7.0191   47.6549   29.8437 C   0  0  0  0  0  0  0  0  0  0  0  0
    6.1878   48.5966   29.2145 O   0  0  0  0  0  0  0  0  0  0  0  0
    4.7841   48.4624   28.9851 C   0  0  2  0  0  0  0  0  0  0  0  0
    4.4957   47.4218   27.8940 C   0  0  0  0  0  0  0  0  0  0  0  0
    4.1926   49.8172   28.6258 C   0  0  0  0  0  0  0  0  0  0  0  0
    3.1888   50.3463   29.4760 C   0  0  0  0  0  0  0  0  0  0  0  0
    4.5695   50.5576   27.4504 C   0  0  0  0  0  0  0  0  0  0  0  0
    2.5907   51.5516   29.1340 C   0  0  0  0  0  0  0  0  0  0  0  0
    3.9118   51.7709   27.1474 C   0  0  0  0  0  0  0  0  0  0  0  0
    5.5873   50.0992   26.5488 N   0  0  0  0  0  0  0  0  0  0  0  0
    1.5991   52.2395   29.8068 O   0  0  0  0  0  0  0  0  0  0  0  0
    2.9344   52.2320   28.0176 C   0  0  0  0  0  0  0  0  0  0  0  0
    5.3917   50.2136   25.1919 O   0  0  0  0  0  0  0  0  0  0  0  0
    6.7331   49.8439   26.9701 O   0  0  0  0  0  0  0  0  0  0  0  0
    1.3034   53.4294   29.0629 C   0  0  0  0  0  0  0  0  0  0  0  0
    2.1786   53.3851   27.9277 O   0  0  0  0  0  0  0  0  0  0  0  0
    8.8119   40.1831   34.2120 O   0  0  0  0  0  0  0  0  0  0  0  0
   11.2416   40.7932   33.3699 O   0  0  0  0  0  0  0  0  0  0  0  0
   10.9187   40.6909   31.9972 C   0  0  0  0  0  0  0  0  0  0  0  0
   11.5172   39.3814   31.4407 C   0  0  0  0  0  0  0  0  0  0  0  0
   12.7493   39.0855   32.0727 O   0  0  0  0  0  0  0  0  0  0  0  0
   10.6023   38.1907   31.6665 C   0  0  0  0  0  0  0  0  0  0  0  0
   12.9319   37.6781   32.0281 C   0  0  0  0  0  0  0  0  0  0  0  0
    9.6392   38.0797   30.6452 O   0  0  0  0  0  0  0  0  0  0  0  0
   11.5715   37.0165   31.7056 C   0  0  0  0  0  0  0  0  0  0  0  0
   13.4847   37.2121   33.3235 N   0  0  0  0  0  0  0  0  0  0  0  0
   11.6187   36.3383   30.4694 O   0  0  0  0  0  0  0  0  0  0  0  0
   14.4801   36.3321   33.5724 C   0  0  0  0  0  0  0  0  0  0  0  0
   13.1137   37.6275   34.5687 C   0  0  0  0  0  0  0  0  0  0  0  0
   15.2073   35.6153   32.6738 N   0  0  0  0  0  0  0  0  0  0  0  0
   14.6759   36.2308   34.9179 C   0  0  0  0  0  0  0  0  0  0  0  0
   13.8216   37.0452   35.5781 N   0  0  0  0  0  0  0  0  0  0  0  0
   16.1640   34.7602   33.1546 C   0  0  0  0  0  0  0  0  0  0  0  0
   15.6526   35.3508   35.4129 C   0  0  0  0  0  0  0  0  0  0  0  0
   16.3794   34.6317   34.5041 N   0  0  0  0  0  0  0  0  0  0  0  0
   15.8999   35.1935   36.8088 N   0  0  0  0  0  0  0  0  0  0  0  0
    9.0098   45.4347   33.6667 H   0  0  0  0  0  0  0  0  0  0  0  0
   11.1131   46.1992   34.4884 H   0  0  0  0  0  0  0  0  0  0  0  0
   11.9349   45.6934   33.0929 H   0  0  0  0  0  0  0  0  0  0  0  0
    9.3520   43.8343   31.4757 H   0  0  0  0  0  0  0  0  0  0  0  0
   10.7311   44.8930   31.1675 H   0  0  0  0  0  0  0  0  0  0  0  0
    7.0129   44.7165   31.5855 H   0  0  0  0  0  0  0  0  0  0  0  0
   10.3466   47.1898   30.4158 H   0  0  0  0  0  0  0  0  0  0  0  0
    5.4680   46.2853   30.5276 H   0  0  0  0  0  0  0  0  0  0  0  0
    8.7940   48.7709   29.3458 H   0  0  0  0  0  0  0  0  0  0  0  0
    4.3047   48.1057   29.9223 H   0  0  0  0  0  0  0  0  0  0  0  0
    4.7684   46.4063   28.2460 H   0  0  0  0  0  0  0  0  0  0  0  0
    5.0773   47.6265   26.9735 H   0  0  0  0  0  0  0  0  0  0  0  0
    3.4128   47.4184   27.6458 H   0  0  0  0  0  0  0  0  0  0  0  0
    2.8705   49.8295   30.3725 H   0  0  0  0  0  0  0  0  0  0  0  0
    4.1692   52.3453   26.2667 H   0  0  0  0  0  0  0  0  0  0  0  0
    0.2441   53.4214   28.7307 H   0  0  0  0  0  0  0  0  0  0  0  0
    1.5174   54.3293   29.6768 H   0  0  0  0  0  0  0  0  0  0  0  0
   11.3972   41.5459   31.4735 H   0  0  0  0  0  0  0  0  0  0  0  0
    9.8300   40.7411   31.7610 H   0  0  0  0  0  0  0  0  0  0  0  0
   11.6974   39.5067   30.3480 H   0  0  0  0  0  0  0  0  0  0  0  0
   10.1077   38.2647   32.6645 H   0  0  0  0  0  0  0  0  0  0  0  0
   13.6621   37.4467   31.2208 H   0  0  0  0  0  0  0  0  0  0  0  0
    8.8975   38.6943   30.8831 H   0  0  0  0  0  0  0  0  0  0  0  0
   11.2806   36.3073   32.5170 H   0  0  0  0  0  0  0  0  0  0  0  0
   10.8493   35.7110   30.4585 H   0  0  0  0  0  0  0  0  0  0  0  0
   12.3290   38.3524   34.7444 H   0  0  0  0  0  0  0  0  0  0  0  0
   16.7559   34.1780   32.4619 H   0  0  0  0  0  0  0  0  0  0  0  0
   16.6344   34.5301   37.1414 H   0  0  0  0  0  0  0  0  0  0  0  0
   15.3531   35.7362   37.5137 H   0  0  0  0  0  0  0  0  0  0  0  0
  1  2  2  0
  1  3  1  0
  3  4  1  0
  4  5  1  0
  6  1  1  0
  7  6  1  0
  6  8  1  0
  8  9  1  0
  9 10  2  0
 11  9  1  0
 10 12  1  0
 13 11  2  0
 12 14  2  0
 14 13  1  0
 14 15  1  0
 15 16  1  0
 16 17  1  0
 16 18  1  0
 18 19  2  0
 20 18  1  0
 19 21  1  0
 22 20  2  0
 20 23  1  0
 21 24  1  0
 21 25  2  0
 25 22  1  0
 23 26  1  0
 23 27  2  0
 24 28  1  0
 25 29  1  0
 28 29  1  0
  4 30  2  0
  4 31  1  0
 32 31  1  0
 32 33  1  0
 33 34  1  0
 33 35  1  0
 34 36  1  0
 35 37  1  0
 35 38  1  0
 38 36  1  0
 36 39  1  0
 38 40  1  0
 41 39  1  0
 42 39  1  0
 43 41  2  0
 41 44  1  0
 45 42  2  0
 46 43  1  0
 44 47  2  0
 44 45  1  0
 48 46  2  0
 48 47  1  0
 47 49  1  0
  6 50  1  1
  7 51  1  0
  7 52  1  0
  8 53  1  0
  8 54  1  0
 10 55  1  0
 11 56  1  0
 12 57  1  0
 13 58  1  0
 16 59  1  1
 17 60  1  0
 17 61  1  0
 17 62  1  0
 19 63  1  0
 22 64  1  0
 28 65  1  0
 28 66  1  0
 32 67  1  0
 32 68  1  0
 33 69  1  0
 35 70  1  0
 36 71  1  0
 37 72  1  0
 38 73  1  0
 40 74  1  0
 42 75  1  0
 46 76  1  0
 49 77  1  0
 49 78  1  0
M  CHG  3   5  -1  23   1  26  -1
M  END
>  <EmbedRMS>  (87) 
0.0838220587973

$$$$

     RDKit          3D

 78 83  0  0  0  0  0  0  0  0999 V2000
   10.2834   43.7662   33.8256 C   0  0  0  0  0  0  0  0  0  0  0  0
   11.4102   43.5930   34.3752 O   0  0  0  0  0  0  0  0  0  0  0  0
    9.3637   42.7255   33.7348 O   0  0  0  0  0  0  0  0  0  0  0  0
    9.8907   41.2265   34.2933 P   0  0  0  0  0  0  0  0  0  0  0  0
   10.3743   41.4557   35.8828 O   0  0  0  0  0  0  0  0  0  0  0  0
    9.9546   45.0694   33.2034 C   0  0  1  0  0  0  0  0  0  0  0  0
   11.0273   46.0321   33.4755 N   0  0  0  0  0  0  0  0  0  0  0  0
    9.7466   44.8480   31.6875 C   0  0  0  0  0  0  0  0  0  0  0  0
    8.7923   45.8406   31.0842 C   0  0  0  0  0  0  0  0  0  0  0  0
    7.4055   45.6017   31.0993 C   0  0  0  0  0  0  0  0  0  0  0  0
    9.2823   46.9879   30.4426 C   0  0  0  0  0  0  0  0  0  0  0  0
    6.5266   46.5035   30.4844 C   0  0  0  0  0  0  0  0  0  0  0  0
    8.4033   47.8904   29.8327 C   0  0  0  0  0  0  0  0  0  0  0  0
    7.0141   47.6521   29.8460 C   0  0  0  0  0  0  0  0  0  0  0  0
    6.0891   48.5197   29.2422 O   0  0  0  0  0  0  0  0  0  0  0  0
    6.4228   49.6835   28.4805 C   0  0  2  0  0  0  0  0  0  0  0  0
    5.1435   50.4690   28.1978 C   0  0  0  0  0  0  0  0  0  0  0  0
    7.0919   49.2928   27.1732 C   0  0  0  0  0  0  0  0  0  0  0  0
    6.5550   48.2083   26.4367 C   0  0  0  0  0  0  0  0  0  0  0  0
    8.2741   49.9494   26.6934 C   0  0  0  0  0  0  0  0  0  0  0  0
    7.2189   47.7911   25.2908 C   0  0  0  0  0  0  0  0  0  0  0  0
    8.9155   49.4689   25.5295 C   0  0  0  0  0  0  0  0  0  0  0  0
    8.8243   51.0983   27.3561 N   0  0  0  0  0  0  0  0  0  0  0  0
    6.8883   46.7586   24.4344 O   0  0  0  0  0  0  0  0  0  0  0  0
    8.3520   48.3911   24.8595 C   0  0  0  0  0  0  0  0  0  0  0  0
   10.1879   51.2773   27.3935 O   0  0  0  0  0  0  0  0  0  0  0  0
    8.0838   52.0462   27.6889 O   0  0  0  0  0  0  0  0  0  0  0  0
    7.8788   46.7091   23.3984 C   0  0  0  0  0  0  0  0  0  0  0  0
    8.7942   47.7688   23.7079 O   0  0  0  0  0  0  0  0  0  0  0  0
    8.8123   40.1850   34.2127 O   0  0  0  0  0  0  0  0  0  0  0  0
   11.2407   40.7945   33.3670 O   0  0  0  0  0  0  0  0  0  0  0  0
   10.9134   40.6866   31.9954 C   0  0  0  0  0  0  0  0  0  0  0  0
   11.5167   39.3787   31.4404 C   0  0  0  0  0  0  0  0  0  0  0  0
   12.7486   39.0849   32.0734 O   0  0  0  0  0  0  0  0  0  0  0  0
   10.6039   38.1884   31.6669 C   0  0  0  0  0  0  0  0  0  0  0  0
   12.9329   37.6775   32.0284 C   0  0  0  0  0  0  0  0  0  0  0  0
    9.6373   38.0938   30.6485 O   0  0  0  0  0  0  0  0  0  0  0  0
   11.5737   37.0141   31.7055 C   0  0  0  0  0  0  0  0  0  0  0  0
   13.4853   37.2120   33.3238 N   0  0  0  0  0  0  0  0  0  0  0  0
   11.6210   36.3379   30.4683 O   0  0  0  0  0  0  0  0  0  0  0  0
   14.4804   36.3319   33.5726 C   0  0  0  0  0  0  0  0  0  0  0  0
   13.1141   37.6275   34.5689 C   0  0  0  0  0  0  0  0  0  0  0  0
   15.2075   35.6152   32.6740 N   0  0  0  0  0  0  0  0  0  0  0  0
   14.6761   36.2307   34.9181 C   0  0  0  0  0  0  0  0  0  0  0  0
   13.8218   37.0451   35.5783 N   0  0  0  0  0  0  0  0  0  0  0  0
   16.1641   34.7600   33.1548 C   0  0  0  0  0  0  0  0  0  0  0  0
   15.6528   35.3507   35.4131 C   0  0  0  0  0  0  0  0  0  0  0  0
   16.3795   34.6315   34.5043 N   0  0  0  0  0  0  0  0  0  0  0  0
   15.9001   35.1933   36.8090 N   0  0  0  0  0  0  0  0  0  0  0  0
    9.0121   45.4317   33.6713 H   0  0  0  0  0  0  0  0  0  0  0  0
   11.8906   45.7658   32.9468 H   0  0  0  0  0  0  0  0  0  0  0  0
   10.7259   46.9687   33.1212 H   0  0  0  0  0  0  0  0  0  0  0  0
   10.7229   44.8813   31.1555 H   0  0  0  0  0  0  0  0  0  0  0  0
    9.3414   43.8328   31.4762 H   0  0  0  0  0  0  0  0  0  0  0  0
    7.0082   44.7170   31.5814 H   0  0  0  0  0  0  0  0  0  0  0  0
   10.3468   47.1855   30.4129 H   0  0  0  0  0  0  0  0  0  0  0  0
    5.4621   46.3068   30.5014 H   0  0  0  0  0  0  0  0  0  0  0  0
    8.8171   48.7666   29.3552 H   0  0  0  0  0  0  0  0  0  0  0  0
    7.0784   50.3257   29.1036 H   0  0  0  0  0  0  0  0  0  0  0  0
    5.3723   51.3810   27.6064 H   0  0  0  0  0  0  0  0  0  0  0  0
    4.4172   49.8450   27.6344 H   0  0  0  0  0  0  0  0  0  0  0  0
    4.6748   50.7788   29.1559 H   0  0  0  0  0  0  0  0  0  0  0  0
    5.6606   47.6914   26.7609 H   0  0  0  0  0  0  0  0  0  0  0  0
    9.8120   49.9382   25.1453 H   0  0  0  0  0  0  0  0  0  0  0  0
    8.4044   45.7314   23.4159 H   0  0  0  0  0  0  0  0  0  0  0  0
    7.4083   46.8861   22.4086 H   0  0  0  0  0  0  0  0  0  0  0  0
    9.8226   40.7225   31.7631 H   0  0  0  0  0  0  0  0  0  0  0  0
   11.3828   41.5438   31.4669 H   0  0  0  0  0  0  0  0  0  0  0  0
   11.6978   39.5037   30.3478 H   0  0  0  0  0  0  0  0  0  0  0  0
   10.1084   38.2787   32.6627 H   0  0  0  0  0  0  0  0  0  0  0  0
   13.6638   37.4472   31.2214 H   0  0  0  0  0  0  0  0  0  0  0  0
    8.9763   37.4191   30.9532 H   0  0  0  0  0  0  0  0  0  0  0  0
   11.2821   36.3054   32.5172 H   0  0  0  0  0  0  0  0  0  0  0  0
   10.8658   35.6935   30.4652 H   0  0  0  0  0  0  0  0  0  0  0  0
   12.3293   38.3523   34.7445 H   0  0  0  0  0  0  0  0  0  0  0  0
   16.7561   34.1778   32.4621 H   0  0  0  0  0  0  0  0  0  0  0  0
   15.3533   35.7361   37.5138 H   0  0  0  0  0  0  0  0  0  0  0  0
   16.6346   34.5300   37.1416 H   0  0  0  0  0  0  0  0  0  0  0  0
  1  2  2  0
  1  3  1  0
  3  4  1  0
  4  5  1  0
  6  1  1  0
  7  6  1  0
  6  8  1  0
  8  9  1  0
  9 10  2  0
 11  9  1  0
 10 12  1  0
 13 11  2  0
 12 14  2  0
 14 13  1  0
 14 15  1  0
 15 16  1  0
 16 17  1  0
 16 18  1  0
 18 19  2  0
 20 18  1  0
 19 21  1  0
 22 20  2  0
 20 23  1  0
 21 24  1  0
 21 25  2  0
 25 22  1  0
 23 26  1  0
 23 27  2  0
 24 28  1  0
 25 29  1  0
 28 29  1  0
  4 30  2  0
  4 31  1  0
 32 31  1  0
 32 33  1  0
 33 34  1  0
 33 35  1  0
 34 36  1  0
 35 37  1  0
 35 38  1  0
 38 36  1  0
 36 39  1  0
 38 40  1  0
 41 39  1  0
 42 39  1  0
 43 41  2  0
 41 44  1  0
 45 42  2  0
 46 43  1  0
 44 47  2  0
 44 45  1  0
 48 46  2  0
 48 47  1  0
 47 49  1  0
  6 50  1  1
  7 51  1  0
  7 52  1  0
  8 53  1  0
  8 54  1  0
 10 55  1  0
 11 56  1  0
 12 57  1  0
 13 58  1  0
 16 59  1  1
 17 60  1  0
 17 61  1  0
 17 62  1  0
 19 63  1  0
 22 64  1  0
 28 65  1  0
 28 66  1  0
 32 67  1  0
 32 68  1  0
 33 69  1  0
 35 70  1  0
 36 71  1  0
 37 72  1  0
 38 73  1  0
 40 74  1  0
 42 75  1  0
 46 76  1  0
 49 77  1  0
 49 78  1  0
M  CHG  3   5  -1  23   1  26  -1
M  END
>  <EmbedRMS>  (88) 
0.0825678420357

$$$$

     RDKit          3D

 78 83  0  0  0  0  0  0  0  0999 V2000
   10.2835   43.7661   33.8257 C   0  0  0  0  0  0  0  0  0  0  0  0
   11.4103   43.5930   34.3753 O   0  0  0  0  0  0  0  0  0  0  0  0
    9.3638   42.7255   33.7350 O   0  0  0  0  0  0  0  0  0  0  0  0
    9.8903   41.2267   34.2943 P   0  0  0  0  0  0  0  0  0  0  0  0
   10.3735   41.4560   35.8837 O   0  0  0  0  0  0  0  0  0  0  0  0
    9.9547   45.0694   33.2036 C   0  0  1  0  0  0  0  0  0  0  0  0
   11.0274   46.0321   33.4757 N   0  0  0  0  0  0  0  0  0  0  0  0
    9.7466   44.8480   31.6878 C   0  0  0  0  0  0  0  0  0  0  0  0
    8.7923   45.8408   31.0847 C   0  0  0  0  0  0  0  0  0  0  0  0
    7.4058   45.6015   31.0990 C   0  0  0  0  0  0  0  0  0  0  0  0
    9.2820   46.9875   30.4424 C   0  0  0  0  0  0  0  0  0  0  0  0
    6.5273   46.5029   30.4835 C   0  0  0  0  0  0  0  0  0  0  0  0
    8.4034   47.8898   29.8310 C   0  0  0  0  0  0  0  0  0  0  0  0
    7.0132   47.6539   29.8479 C   0  0  0  0  0  0  0  0  0  0  0  0
    6.0819   48.5160   29.2448 O   0  0  0  0  0  0  0  0  0  0  0  0
    6.3748   49.7637   28.6086 C   0  0  2  0  0  0  0  0  0  0  0  0
    6.6319   50.8294   29.6858 C   0  0  0  0  0  0  0  0  0  0  0  0
    5.2361   50.0883   27.6424 C   0  0  0  0  0  0  0  0  0  0  0  0
    4.4919   51.2968   27.7507 C   0  0  0  0  0  0  0  0  0  0  0  0
    4.8679   49.1433   26.6202 C   0  0  0  0  0  0  0  0  0  0  0  0
    3.4313   51.5093   26.8803 C   0  0  0  0  0  0  0  0  0  0  0  0
    3.7674   49.4125   25.7757 C   0  0  0  0  0  0  0  0  0  0  0  0
    5.5750   47.9039   26.4385 N   0  0  0  0  0  0  0  0  0  0  0  0
    2.5826   52.5977   26.8130 O   0  0  0  0  0  0  0  0  0  0  0  0
    3.0827   50.6068   25.9376 C   0  0  0  0  0  0  0  0  0  0  0  0
    4.8878   46.7761   26.0525 O   0  0  0  0  0  0  0  0  0  0  0  0
    6.8224   47.8793   26.4253 O   0  0  0  0  0  0  0  0  0  0  0  0
    1.6412   52.3604   25.7577 C   0  0  0  0  0  0  0  0  0  0  0  0
    1.9965   51.0774   25.2251 O   0  0  0  0  0  0  0  0  0  0  0  0
    8.8122   40.1850   34.2131 O   0  0  0  0  0  0  0  0  0  0  0  0
   11.2407   40.7939   33.3694 O   0  0  0  0  0  0  0  0  0  0  0  0
   10.9151   40.6905   31.9974 C   0  0  0  0  0  0  0  0  0  0  0  0
   11.5252   39.3886   31.4375 C   0  0  0  0  0  0  0  0  0  0  0  0
   12.7500   39.0874   32.0799 O   0  0  0  0  0  0  0  0  0  0  0  0
   10.6092   38.1926   31.6470 C   0  0  0  0  0  0  0  0  0  0  0  0
   12.9332   37.6793   32.0294 C   0  0  0  0  0  0  0  0  0  0  0  0
    9.6122   38.0895   30.6542 O   0  0  0  0  0  0  0  0  0  0  0  0
   11.5743   37.0145   31.7024 C   0  0  0  0  0  0  0  0  0  0  0  0
   13.4844   37.2108   33.3241 N   0  0  0  0  0  0  0  0  0  0  0  0
   11.6297   36.3239   30.4740 O   0  0  0  0  0  0  0  0  0  0  0  0
   14.4802   36.3313   33.5727 C   0  0  0  0  0  0  0  0  0  0  0  0
   13.1138   37.6266   34.5692 C   0  0  0  0  0  0  0  0  0  0  0  0
   15.2075   35.6149   32.6739 N   0  0  0  0  0  0  0  0  0  0  0  0
   14.6761   36.2303   34.9181 C   0  0  0  0  0  0  0  0  0  0  0  0
   13.8220   37.0447   35.5785 N   0  0  0  0  0  0  0  0  0  0  0  0
   16.1643   34.7600   33.1547 C   0  0  0  0  0  0  0  0  0  0  0  0
   15.6529   35.3505   35.4130 C   0  0  0  0  0  0  0  0  0  0  0  0
   16.3798   34.6315   34.5042 N   0  0  0  0  0  0  0  0  0  0  0  0
   15.9003   35.1932   36.8090 N   0  0  0  0  0  0  0  0  0  0  0  0
    9.0121   45.4317   33.6716 H   0  0  0  0  0  0  0  0  0  0  0  0
   10.7260   46.9687   33.1213 H   0  0  0  0  0  0  0  0  0  0  0  0
   11.8906   45.7658   32.9470 H   0  0  0  0  0  0  0  0  0  0  0  0
    9.3414   43.8329   31.4764 H   0  0  0  0  0  0  0  0  0  0  0  0
   10.7229   44.8814   31.1557 H   0  0  0  0  0  0  0  0  0  0  0  0
    7.0085   44.7164   31.5804 H   0  0  0  0  0  0  0  0  0  0  0  0
   10.3468   47.1839   30.4111 H   0  0  0  0  0  0  0  0  0  0  0  0
    5.4629   46.3052   30.5000 H   0  0  0  0  0  0  0  0  0  0  0  0
    8.8224   48.7597   29.3475 H   0  0  0  0  0  0  0  0  0  0  0  0
    7.2979   49.6823   27.9996 H   0  0  0  0  0  0  0  0  0  0  0  0
    6.9131   51.7959   29.2162 H   0  0  0  0  0  0  0  0  0  0  0  0
    5.7328   50.9624   30.3246 H   0  0  0  0  0  0  0  0  0  0  0  0
    7.4715   50.5213   30.3419 H   0  0  0  0  0  0  0  0  0  0  0  0
    4.7068   52.0563   28.4874 H   0  0  0  0  0  0  0  0  0  0  0  0
    3.4658   48.7165   25.0035 H   0  0  0  0  0  0  0  0  0  0  0  0
    1.7378   53.1408   24.9740 H   0  0  0  0  0  0  0  0  0  0  0  0
    0.6080   52.3343   26.1632 H   0  0  0  0  0  0  0  0  0  0  0  0
    9.8243   40.7216   31.7643 H   0  0  0  0  0  0  0  0  0  0  0  0
   11.3802   41.5529   31.4733 H   0  0  0  0  0  0  0  0  0  0  0  0
   11.7266   39.5311   30.3513 H   0  0  0  0  0  0  0  0  0  0  0  0
   10.1110   38.2747   32.6387 H   0  0  0  0  0  0  0  0  0  0  0  0
   13.6652   37.4519   31.2226 H   0  0  0  0  0  0  0  0  0  0  0  0
   10.0511   38.1143   29.7645 H   0  0  0  0  0  0  0  0  0  0  0  0
   11.2762   36.3141   32.5189 H   0  0  0  0  0  0  0  0  0  0  0  0
   10.8593   35.6978   30.4640 H   0  0  0  0  0  0  0  0  0  0  0  0
   12.3295   38.3518   34.7449 H   0  0  0  0  0  0  0  0  0  0  0  0
   16.7564   34.1780   32.4620 H   0  0  0  0  0  0  0  0  0  0  0  0
   16.6349   34.5300   37.1415 H   0  0  0  0  0  0  0  0  0  0  0  0
   15.3534   35.7359   37.5138 H   0  0  0  0  0  0  0  0  0  0  0  0
  1  2  2  0
  1  3  1  0
  3  4  1  0
  4  5  1  0
  6  1  1  0
  7  6  1  0
  6  8  1  0
  8  9  1  0
  9 10  2  0
 11  9  1  0
 10 12  1  0
 13 11  2  0
 12 14  2  0
 14 13  1  0
 14 15  1  0
 15 16  1  0
 16 17  1  0
 16 18  1  0
 18 19  2  0
 20 18  1  0
 19 21  1  0
 22 20  2  0
 20 23  1  0
 21 24  1  0
 21 25  2  0
 25 22  1  0
 23 26  1  0
 23 27  2  0
 24 28  1  0
 25 29  1  0
 28 29  1  0
  4 30  2  0
  4 31  1  0
 32 31  1  0
 32 33  1  0
 33 34  1  0
 33 35  1  0
 34 36  1  0
 35 37  1  0
 35 38  1  0
 38 36  1  0
 36 39  1  0
 38 40  1  0
 41 39  1  0
 42 39  1  0
 43 41  2  0
 41 44  1  0
 45 42  2  0
 46 43  1  0
 44 47  2  0
 44 45  1  0
 48 46  2  0
 48 47  1  0
 47 49  1  0
  6 50  1  1
  7 51  1  0
  7 52  1  0
  8 53  1  0
  8 54  1  0
 10 55  1  0
 11 56  1  0
 12 57  1  0
 13 58  1  0
 16 59  1  6
 17 60  1  0
 17 61  1  0
 17 62  1  0
 19 63  1  0
 22 64  1  0
 28 65  1  0
 28 66  1  0
 32 67  1  0
 32 68  1  0
 33 69  1  0
 35 70  1  0
 36 71  1  0
 37 72  1  0
 38 73  1  0
 40 74  1  0
 42 75  1  0
 46 76  1  0
 49 77  1  0
 49 78  1  0
M  CHG  3   5  -1  23   1  26  -1
M  END
>  <EmbedRMS>  (89) 
0.0818089321486

$$$$

     RDKit          3D

 78 83  0  0  0  0  0  0  0  0999 V2000
   10.2803   43.7664   33.8250 C   0  0  0  0  0  0  0  0  0  0  0  0
   11.4110   43.5919   34.3666 O   0  0  0  0  0  0  0  0  0  0  0  0
    9.3618   42.7250   33.7346 O   0  0  0  0  0  0  0  0  0  0  0  0
    9.8899   41.2267   34.2940 P   0  0  0  0  0  0  0  0  0  0  0  0
   10.3735   41.4565   35.8832 O   0  0  0  0  0  0  0  0  0  0  0  0
    9.9458   45.0735   33.2111 C   0  0  1  0  0  0  0  0  0  0  0  0
   11.0266   46.0292   33.4706 N   0  0  0  0  0  0  0  0  0  0  0  0
    9.7535   44.8536   31.6949 C   0  0  0  0  0  0  0  0  0  0  0  0
    8.7955   45.8407   31.0845 C   0  0  0  0  0  0  0  0  0  0  0  0
    7.4087   45.6008   31.1012 C   0  0  0  0  0  0  0  0  0  0  0  0
    9.2828   46.9878   30.4404 C   0  0  0  0  0  0  0  0  0  0  0  0
    6.5283   46.5017   30.4864 C   0  0  0  0  0  0  0  0  0  0  0  0
    8.4024   47.8895   29.8315 C   0  0  0  0  0  0  0  0  0  0  0  0
    7.0137   47.6501   29.8455 C   0  0  0  0  0  0  0  0  0  0  0  0
    6.0852   48.5151   29.2430 O   0  0  0  0  0  0  0  0  0  0  0  0
    6.4070   49.6646   28.4591 C   0  0  2  0  0  0  0  0  0  0  0  0
    5.1469   50.5037   28.2449 C   0  0  0  0  0  0  0  0  0  0  0  0
    7.0341   49.2723   27.1290 C   0  0  0  0  0  0  0  0  0  0  0  0
    8.2880   49.8390   26.7920 C   0  0  0  0  0  0  0  0  0  0  0  0
    6.3862   48.4049   26.1861 C   0  0  0  0  0  0  0  0  0  0  0  0
    8.8490   49.5304   25.5597 C   0  0  0  0  0  0  0  0  0  0  0  0
    6.9984   48.1384   24.9414 C   0  0  0  0  0  0  0  0  0  0  0  0
    5.1134   47.8073   26.4600 N   0  0  0  0  0  0  0  0  0  0  0  0
   10.0500   49.9623   25.0305 O   0  0  0  0  0  0  0  0  0  0  0  0
    8.2311   48.7172   24.6730 C   0  0  0  0  0  0  0  0  0  0  0  0
    5.0037   46.8554   27.4454 O   0  0  0  0  0  0  0  0  0  0  0  0
    4.1898   47.9213   25.6283 O   0  0  0  0  0  0  0  0  0  0  0  0
   10.1943   49.3800   23.7278 C   0  0  0  0  0  0  0  0  0  0  0  0
    9.0104   48.5929   23.5390 O   0  0  0  0  0  0  0  0  0  0  0  0
    8.8123   40.1844   34.2133 O   0  0  0  0  0  0  0  0  0  0  0  0
   11.2402   40.7945   33.3688 O   0  0  0  0  0  0  0  0  0  0  0  0
   10.9141   40.6898   31.9970 C   0  0  0  0  0  0  0  0  0  0  0  0
   11.5260   39.3884   31.4376 C   0  0  0  0  0  0  0  0  0  0  0  0
   12.7504   39.0888   32.0816 O   0  0  0  0  0  0  0  0  0  0  0  0
   10.6114   38.1909   31.6461 C   0  0  0  0  0  0  0  0  0  0  0  0
   12.9357   37.6813   32.0303 C   0  0  0  0  0  0  0  0  0  0  0  0
    9.6145   38.0858   30.6534 O   0  0  0  0  0  0  0  0  0  0  0  0
   11.5769   37.0148   31.7012 C   0  0  0  0  0  0  0  0  0  0  0  0
   13.4849   37.2112   33.3247 N   0  0  0  0  0  0  0  0  0  0  0  0
   11.6193   36.3261   30.4724 O   0  0  0  0  0  0  0  0  0  0  0  0
   14.4802   36.3313   33.5730 C   0  0  0  0  0  0  0  0  0  0  0  0
   13.1141   37.6268   34.5698 C   0  0  0  0  0  0  0  0  0  0  0  0
   15.2075   35.6151   32.6740 N   0  0  0  0  0  0  0  0  0  0  0  0
   14.6761   36.2300   34.9184 C   0  0  0  0  0  0  0  0  0  0  0  0
   13.8220   37.0444   35.5788 N   0  0  0  0  0  0  0  0  0  0  0  0
   16.1643   34.7600   33.1547 C   0  0  0  0  0  0  0  0  0  0  0  0
   15.6530   35.3503   35.4131 C   0  0  0  0  0  0  0  0  0  0  0  0
   16.3798   34.6314   34.5042 N   0  0  0  0  0  0  0  0  0  0  0  0
   15.9004   35.1931   36.8090 N   0  0  0  0  0  0  0  0  0  0  0  0
    8.9994   45.4380   33.6721 H   0  0  0  0  0  0  0  0  0  0  0  0
   11.0502   46.2277   34.4979 H   0  0  0  0  0  0  0  0  0  0  0  0
   10.7763   46.9369   33.0157 H   0  0  0  0  0  0  0  0  0  0  0  0
    9.3635   43.8350   31.4716 H   0  0  0  0  0  0  0  0  0  0  0  0
   10.7406   44.9067   31.1833 H   0  0  0  0  0  0  0  0  0  0  0  0
    7.0129   44.7168   31.5858 H   0  0  0  0  0  0  0  0  0  0  0  0
   10.3469   47.1874   30.4091 H   0  0  0  0  0  0  0  0  0  0  0  0
    5.4640   46.3042   30.5053 H   0  0  0  0  0  0  0  0  0  0  0  0
    8.8156   48.7667   29.3575 H   0  0  0  0  0  0  0  0  0  0  0  0
    7.1036   50.3053   29.0445 H   0  0  0  0  0  0  0  0  0  0  0  0
    4.7692   50.8642   29.2252 H   0  0  0  0  0  0  0  0  0  0  0  0
    4.3430   49.9112   27.7634 H   0  0  0  0  0  0  0  0  0  0  0  0
    5.3771   51.3872   27.6116 H   0  0  0  0  0  0  0  0  0  0  0  0
    8.8084   50.5087   27.4649 H   0  0  0  0  0  0  0  0  0  0  0  0
    6.5287   47.4908   24.2120 H   0  0  0  0  0  0  0  0  0  0  0  0
   10.2527   50.1756   22.9557 H   0  0  0  0  0  0  0  0  0  0  0  0
   11.0948   48.7315   23.6947 H   0  0  0  0  0  0  0  0  0  0  0  0
   11.3776   41.5526   31.4723 H   0  0  0  0  0  0  0  0  0  0  0  0
    9.8231   40.7190   31.7645 H   0  0  0  0  0  0  0  0  0  0  0  0
   11.7282   39.5310   30.3516 H   0  0  0  0  0  0  0  0  0  0  0  0
   10.1126   38.2734   32.6377 H   0  0  0  0  0  0  0  0  0  0  0  0
   13.6692   37.4567   31.2241 H   0  0  0  0  0  0  0  0  0  0  0  0
   10.0533   38.1118   29.7636 H   0  0  0  0  0  0  0  0  0  0  0  0
   11.2607   36.3148   32.5101 H   0  0  0  0  0  0  0  0  0  0  0  0
   12.1496   35.5024   30.6325 H   0  0  0  0  0  0  0  0  0  0  0  0
   12.3301   38.3523   34.7456 H   0  0  0  0  0  0  0  0  0  0  0  0
   16.7564   34.1781   32.4620 H   0  0  0  0  0  0  0  0  0  0  0  0
   16.6350   34.5299   37.1417 H   0  0  0  0  0  0  0  0  0  0  0  0
   15.3535   35.7357   37.5138 H   0  0  0  0  0  0  0  0  0  0  0  0
  1  2  2  0
  1  3  1  0
  3  4  1  0
  4  5  1  0
  6  1  1  0
  7  6  1  0
  6  8  1  0
  8  9  1  0
  9 10  2  0
 11  9  1  0
 10 12  1  0
 13 11  2  0
 12 14  2  0
 14 13  1  0
 14 15  1  0
 15 16  1  0
 16 17  1  0
 16 18  1  0
 18 19  2  0
 20 18  1  0
 19 21  1  0
 22 20  2  0
 20 23  1  0
 21 24  1  0
 21 25  2  0
 25 22  1  0
 23 26  1  0
 23 27  2  0
 24 28  1  0
 25 29  1  0
 28 29  1  0
  4 30  2  0
  4 31  1  0
 32 31  1  0
 32 33  1  0
 33 34  1  0
 33 35  1  0
 34 36  1  0
 35 37  1  0
 35 38  1  0
 38 36  1  0
 36 39  1  0
 38 40  1  0
 41 39  1  0
 42 39  1  0
 43 41  2  0
 41 44  1  0
 45 42  2  0
 46 43  1  0
 44 47  2  0
 44 45  1  0
 48 46  2  0
 48 47  1  0
 47 49  1  0
  6 50  1  1
  7 51  1  0
  7 52  1  0
  8 53  1  0
  8 54  1  0
 10 55  1  0
 11 56  1  0
 12 57  1  0
 13 58  1  0
 16 59  1  1
 17 60  1  0
 17 61  1  0
 17 62  1  0
 19 63  1  0
 22 64  1  0
 28 65  1  0
 28 66  1  0
 32 67  1  0
 32 68  1  0
 33 69  1  0
 35 70  1  0
 36 71  1  0
 37 72  1  0
 38 73  1  0
 40 74  1  0
 42 75  1  0
 46 76  1  0
 49 77  1  0
 49 78  1  0
M  CHG  3   5  -1  23   1  26  -1
M  END
>  <EmbedRMS>  (90) 
0.0814509643364

$$$$

     RDKit          3D

 78 83  0  0  0  0  0  0  0  0999 V2000
   10.2841   43.7625   33.8276 C   0  0  0  0  0  0  0  0  0  0  0  0
   11.4105   43.5862   34.3768 O   0  0  0  0  0  0  0  0  0  0  0  0
    9.3634   42.7234   33.7351 O   0  0  0  0  0  0  0  0  0  0  0  0
    9.8899   41.2246   34.2940 P   0  0  0  0  0  0  0  0  0  0  0  0
   10.3723   41.4544   35.8837 O   0  0  0  0  0  0  0  0  0  0  0  0
    9.9550   45.0699   33.2067 C   0  0  1  0  0  0  0  0  0  0  0  0
   11.0199   46.0481   33.4574 N   0  0  0  0  0  0  0  0  0  0  0  0
    9.7505   44.8514   31.6926 C   0  0  0  0  0  0  0  0  0  0  0  0
    8.7944   45.8426   31.0883 C   0  0  0  0  0  0  0  0  0  0  0  0
    7.4082   45.6003   31.0995 C   0  0  0  0  0  0  0  0  0  0  0  0
    9.2825   46.9887   30.4443 C   0  0  0  0  0  0  0  0  0  0  0  0
    6.5265   46.4989   30.4836 C   0  0  0  0  0  0  0  0  0  0  0  0
    8.4007   47.8862   29.8312 C   0  0  0  0  0  0  0  0  0  0  0  0
    7.0181   47.6581   29.8482 C   0  0  0  0  0  0  0  0  0  0  0  0
    6.1873   48.5985   29.2074 O   0  0  0  0  0  0  0  0  0  0  0  0
    4.7616   48.7364   29.3305 C   0  0  2  0  0  0  0  0  0  0  0  0
    4.3569   48.8449   30.8150 C   0  0  0  0  0  0  0  0  0  0  0  0
    3.9814   47.6674   28.5602 C   0  0  0  0  0  0  0  0  0  0  0  0
    4.6745   46.6803   27.8088 C   0  0  0  0  0  0  0  0  0  0  0  0
    2.5437   47.6425   28.5621 C   0  0  0  0  0  0  0  0  0  0  0  0
    3.9440   45.6783   27.1846 C   0  0  0  0  0  0  0  0  0  0  0  0
    1.8556   46.5864   27.9222 C   0  0  0  0  0  0  0  0  0  0  0  0
    1.7727   48.6923   29.1641 N   0  0  0  0  0  0  0  0  0  0  0  0
    4.4115   44.6173   26.4330 O   0  0  0  0  0  0  0  0  0  0  0  0
    2.5954   45.6272   27.2476 C   0  0  0  0  0  0  0  0  0  0  0  0
    2.0244   50.0040   28.8353 O   0  0  0  0  0  0  0  0  0  0  0  0
    0.7294   48.4177   29.7921 O   0  0  0  0  0  0  0  0  0  0  0  0
    3.2803   43.8497   25.9998 C   0  0  0  0  0  0  0  0  0  0  0  0
    2.1402   44.5306   26.5411 O   0  0  0  0  0  0  0  0  0  0  0  0
    8.8118   40.1831   34.2120 O   0  0  0  0  0  0  0  0  0  0  0  0
   11.2415   40.7932   33.3699 O   0  0  0  0  0  0  0  0  0  0  0  0
   10.9186   40.6909   31.9972 C   0  0  0  0  0  0  0  0  0  0  0  0
   11.5172   39.3814   31.4407 C   0  0  0  0  0  0  0  0  0  0  0  0
   12.7493   39.0855   32.0727 O   0  0  0  0  0  0  0  0  0  0  0  0
   10.6023   38.1907   31.6665 C   0  0  0  0  0  0  0  0  0  0  0  0
   12.9319   37.6781   32.0281 C   0  0  0  0  0  0  0  0  0  0  0  0
    9.6392   38.0797   30.6451 O   0  0  0  0  0  0  0  0  0  0  0  0
   11.5715   37.0165   31.7056 C   0  0  0  0  0  0  0  0  0  0  0  0
   13.4846   37.2121   33.3235 N   0  0  0  0  0  0  0  0  0  0  0  0
   11.6187   36.3383   30.4694 O   0  0  0  0  0  0  0  0  0  0  0  0
   14.4801   36.3321   33.5724 C   0  0  0  0  0  0  0  0  0  0  0  0
   13.1137   37.6276   34.5687 C   0  0  0  0  0  0  0  0  0  0  0  0
   15.2073   35.6153   32.6738 N   0  0  0  0  0  0  0  0  0  0  0  0
   14.6759   36.2308   34.9179 C   0  0  0  0  0  0  0  0  0  0  0  0
   13.8216   37.0452   35.5781 N   0  0  0  0  0  0  0  0  0  0  0  0
   16.1640   34.7602   33.1546 C   0  0  0  0  0  0  0  0  0  0  0  0
   15.6526   35.3508   35.4129 C   0  0  0  0  0  0  0  0  0  0  0  0
   16.3794   34.6317   34.5041 N   0  0  0  0  0  0  0  0  0  0  0  0
   15.8999   35.1935   36.8088 N   0  0  0  0  0  0  0  0  0  0  0  0
    9.0100   45.4347   33.6675 H   0  0  0  0  0  0  0  0  0  0  0  0
   11.1134   46.1991   34.4887 H   0  0  0  0  0  0  0  0  0  0  0  0
   11.9350   45.6933   33.0930 H   0  0  0  0  0  0  0  0  0  0  0  0
    9.3517   43.8348   31.4760 H   0  0  0  0  0  0  0  0  0  0  0  0
   10.7308   44.8935   31.1678 H   0  0  0  0  0  0  0  0  0  0  0  0
    7.0137   44.7100   31.5738 H   0  0  0  0  0  0  0  0  0  0  0  0
   10.3466   47.1884   30.4133 H   0  0  0  0  0  0  0  0  0  0  0  0
    5.4746   46.2604   30.4828 H   0  0  0  0  0  0  0  0  0  0  0  0
    8.7945   48.7667   29.3394 H   0  0  0  0  0  0  0  0  0  0  0  0
    4.5188   49.7098   28.8563 H   0  0  0  0  0  0  0  0  0  0  0  0
    3.4845   49.5172   30.9393 H   0  0  0  0  0  0  0  0  0  0  0  0
    5.1870   49.2822   31.4094 H   0  0  0  0  0  0  0  0  0  0  0  0
    4.0901   47.8579   31.2440 H   0  0  0  0  0  0  0  0  0  0  0  0
    5.7496   46.6762   27.7065 H   0  0  0  0  0  0  0  0  0  0  0  0
    0.7742   46.5384   27.9196 H   0  0  0  0  0  0  0  0  0  0  0  0
    3.2275   43.8358   24.8910 H   0  0  0  0  0  0  0  0  0  0  0  0
    3.3383   42.8178   26.4050 H   0  0  0  0  0  0  0  0  0  0  0  0
   11.3971   41.5459   31.4735 H   0  0  0  0  0  0  0  0  0  0  0  0
    9.8300   40.7410   31.7610 H   0  0  0  0  0  0  0  0  0  0  0  0
   11.6974   39.5067   30.3480 H   0  0  0  0  0  0  0  0  0  0  0  0
   10.1077   38.2647   32.6645 H   0  0  0  0  0  0  0  0  0  0  0  0
   13.6621   37.4467   31.2208 H   0  0  0  0  0  0  0  0  0  0  0  0
    8.8975   38.6944   30.8830 H   0  0  0  0  0  0  0  0  0  0  0  0
   11.2806   36.3073   32.5170 H   0  0  0  0  0  0  0  0  0  0  0  0
   10.8493   35.7110   30.4585 H   0  0  0  0  0  0  0  0  0  0  0  0
   12.3290   38.3524   34.7444 H   0  0  0  0  0  0  0  0  0  0  0  0
   16.7559   34.1780   32.4619 H   0  0  0  0  0  0  0  0  0  0  0  0
   16.6344   34.5301   37.1414 H   0  0  0  0  0  0  0  0  0  0  0  0
   15.3531   35.7362   37.5137 H   0  0  0  0  0  0  0  0  0  0  0  0
  1  2  2  0
  1  3  1  0
  3  4  1  0
  4  5  1  0
  6  1  1  0
  7  6  1  0
  6  8  1  0
  8  9  1  0
  9 10  2  0
 11  9  1  0
 10 12  1  0
 13 11  2  0
 12 14  2  0
 14 13  1  0
 14 15  1  0
 15 16  1  0
 16 17  1  0
 16 18  1  0
 18 19  2  0
 20 18  1  0
 19 21  1  0
 22 20  2  0
 20 23  1  0
 21 24  1  0
 21 25  2  0
 25 22  1  0
 23 26  1  0
 23 27  2  0
 24 28  1  0
 25 29  1  0
 28 29  1  0
  4 30  2  0
  4 31  1  0
 32 31  1  0
 32 33  1  0
 33 34  1  0
 33 35  1  0
 34 36  1  0
 35 37  1  0
 35 38  1  0
 38 36  1  0
 36 39  1  0
 38 40  1  0
 41 39  1  0
 42 39  1  0
 43 41  2  0
 41 44  1  0
 45 42  2  0
 46 43  1  0
 44 47  2  0
 44 45  1  0
 48 46  2  0
 48 47  1  0
 47 49  1  0
  6 50  1  1
  7 51  1  0
  7 52  1  0
  8 53  1  0
  8 54  1  0
 10 55  1  0
 11 56  1  0
 12 57  1  0
 13 58  1  0
 16 59  1  6
 17 60  1  0
 17 61  1  0
 17 62  1  0
 19 63  1  0
 22 64  1  0
 28 65  1  0
 28 66  1  0
 32 67  1  0
 32 68  1  0
 33 69  1  0
 35 70  1  0
 36 71  1  0
 37 72  1  0
 38 73  1  0
 40 74  1  0
 42 75  1  0
 46 76  1  0
 49 77  1  0
 49 78  1  0
M  CHG  3   5  -1  23   1  26  -1
M  END
>  <EmbedRMS>  (91) 
0.0837937368954

$$$$

     RDKit          3D

 78 83  0  0  0  0  0  0  0  0999 V2000
   10.2834   43.7662   33.8257 C   0  0  0  0  0  0  0  0  0  0  0  0
   11.4102   43.5930   34.3752 O   0  0  0  0  0  0  0  0  0  0  0  0
    9.3635   42.7257   33.7353 O   0  0  0  0  0  0  0  0  0  0  0  0
    9.8899   41.2270   34.2948 P   0  0  0  0  0  0  0  0  0  0  0  0
   10.3732   41.4562   35.8841 O   0  0  0  0  0  0  0  0  0  0  0  0
    9.9546   45.0695   33.2035 C   0  0  1  0  0  0  0  0  0  0  0  0
   11.0274   46.0321   33.4755 N   0  0  0  0  0  0  0  0  0  0  0  0
    9.7466   44.8479   31.6876 C   0  0  0  0  0  0  0  0  0  0  0  0
    8.7923   45.8406   31.0842 C   0  0  0  0  0  0  0  0  0  0  0  0
    7.4055   45.6018   31.0995 C   0  0  0  0  0  0  0  0  0  0  0  0
    9.2823   46.9878   30.4426 C   0  0  0  0  0  0  0  0  0  0  0  0
    6.5266   46.5037   30.4846 C   0  0  0  0  0  0  0  0  0  0  0  0
    8.4033   47.8903   29.8326 C   0  0  0  0  0  0  0  0  0  0  0  0
    7.0141   47.6520   29.8457 C   0  0  0  0  0  0  0  0  0  0  0  0
    6.0891   48.5191   29.2413 O   0  0  0  0  0  0  0  0  0  0  0  0
    6.4227   49.6771   28.4709 C   0  0  2  0  0  0  0  0  0  0  0  0
    5.1439   50.4637   28.1881 C   0  0  0  0  0  0  0  0  0  0  0  0
    7.0858   49.2752   27.1642 C   0  0  0  0  0  0  0  0  0  0  0  0
    6.5331   48.1981   26.4285 C   0  0  0  0  0  0  0  0  0  0  0  0
    8.2786   49.9118   26.6868 C   0  0  0  0  0  0  0  0  0  0  0  0
    7.1908   47.7706   25.2829 C   0  0  0  0  0  0  0  0  0  0  0  0
    8.9128   49.4223   25.5217 C   0  0  0  0  0  0  0  0  0  0  0  0
    8.8415   51.0523   27.3537 N   0  0  0  0  0  0  0  0  0  0  0  0
    6.8448   46.7429   24.4268 O   0  0  0  0  0  0  0  0  0  0  0  0
    8.3330   48.3532   24.8515 C   0  0  0  0  0  0  0  0  0  0  0  0
    8.0389   52.1141   27.7013 O   0  0  0  0  0  0  0  0  0  0  0  0
   10.0807   51.1870   27.4203 O   0  0  0  0  0  0  0  0  0  0  0  0
    7.8345   46.6783   23.3908 C   0  0  0  0  0  0  0  0  0  0  0  0
    8.7658   47.7242   23.7001 O   0  0  0  0  0  0  0  0  0  0  0  0
    8.8120   40.1850   34.2133 O   0  0  0  0  0  0  0  0  0  0  0  0
   11.2403   40.7947   33.3700 O   0  0  0  0  0  0  0  0  0  0  0  0
   10.9144   40.6914   31.9982 C   0  0  0  0  0  0  0  0  0  0  0  0
   11.5270   39.3912   31.4385 C   0  0  0  0  0  0  0  0  0  0  0  0
   12.7520   39.0911   32.0836 O   0  0  0  0  0  0  0  0  0  0  0  0
   10.6113   38.1932   31.6451 C   0  0  0  0  0  0  0  0  0  0  0  0
   12.9413   37.6838   32.0297 C   0  0  0  0  0  0  0  0  0  0  0  0
    9.6064   38.0878   30.6599 O   0  0  0  0  0  0  0  0  0  0  0  0
   11.5822   37.0198   31.6877 C   0  0  0  0  0  0  0  0  0  0  0  0
   13.4840   37.2105   33.3254 N   0  0  0  0  0  0  0  0  0  0  0  0
   11.6179   36.3072   30.4690 O   0  0  0  0  0  0  0  0  0  0  0  0
   14.4797   36.3309   33.5738 C   0  0  0  0  0  0  0  0  0  0  0  0
   13.1136   37.6269   34.5702 C   0  0  0  0  0  0  0  0  0  0  0  0
   15.2074   35.6152   32.6747 N   0  0  0  0  0  0  0  0  0  0  0  0
   14.6756   36.2298   34.9190 C   0  0  0  0  0  0  0  0  0  0  0  0
   13.8217   37.0445   35.5793 N   0  0  0  0  0  0  0  0  0  0  0  0
   16.1643   34.7603   33.1551 C   0  0  0  0  0  0  0  0  0  0  0  0
   15.6528   35.3503   35.4136 C   0  0  0  0  0  0  0  0  0  0  0  0
   16.3798   34.6316   34.5046 N   0  0  0  0  0  0  0  0  0  0  0  0
   15.9004   35.1930   36.8094 N   0  0  0  0  0  0  0  0  0  0  0  0
    9.0121   45.4318   33.6713 H   0  0  0  0  0  0  0  0  0  0  0  0
   11.8906   45.7658   32.9468 H   0  0  0  0  0  0  0  0  0  0  0  0
   10.7260   46.9687   33.1211 H   0  0  0  0  0  0  0  0  0  0  0  0
   10.7229   44.8813   31.1555 H   0  0  0  0  0  0  0  0  0  0  0  0
    9.3414   43.8328   31.4762 H   0  0  0  0  0  0  0  0  0  0  0  0
    7.0082   44.7172   31.5818 H   0  0  0  0  0  0  0  0  0  0  0  0
   10.3468   47.1855   30.4129 H   0  0  0  0  0  0  0  0  0  0  0  0
    5.4621   46.3070   30.5017 H   0  0  0  0  0  0  0  0  0  0  0  0
    8.8171   48.7665   29.3552 H   0  0  0  0  0  0  0  0  0  0  0  0
    7.0825   50.3225   29.0863 H   0  0  0  0  0  0  0  0  0  0  0  0
    4.6826   50.7853   29.1459 H   0  0  0  0  0  0  0  0  0  0  0  0
    5.3711   51.3685   27.5852 H   0  0  0  0  0  0  0  0  0  0  0  0
    4.4117   49.8361   27.6365 H   0  0  0  0  0  0  0  0  0  0  0  0
    5.6312   47.6948   26.7532 H   0  0  0  0  0  0  0  0  0  0  0  0
    9.8167   49.8778   25.1382 H   0  0  0  0  0  0  0  0  0  0  0  0
    8.3453   45.6927   23.4087 H   0  0  0  0  0  0  0  0  0  0  0  0
    7.3668   46.8621   22.4009 H   0  0  0  0  0  0  0  0  0  0  0  0
    9.8234   40.7201   31.7654 H   0  0  0  0  0  0  0  0  0  0  0  0
   11.3777   41.5549   31.4744 H   0  0  0  0  0  0  0  0  0  0  0  0
   11.7312   39.5363   30.3532 H   0  0  0  0  0  0  0  0  0  0  0  0
   10.1203   38.2696   32.6410 H   0  0  0  0  0  0  0  0  0  0  0  0
   13.6850   37.4639   31.2321 H   0  0  0  0  0  0  0  0  0  0  0  0
   10.0251   38.1793   29.7654 H   0  0  0  0  0  0  0  0  0  0  0  0
   11.2757   36.3135   32.4907 H   0  0  0  0  0  0  0  0  0  0  0  0
   11.9838   36.9111   29.7708 H   0  0  0  0  0  0  0  0  0  0  0  0
   12.3307   38.3536   34.7457 H   0  0  0  0  0  0  0  0  0  0  0  0
   16.7566   34.1787   32.4623 H   0  0  0  0  0  0  0  0  0  0  0  0
   16.6353   34.5301   37.1419 H   0  0  0  0  0  0  0  0  0  0  0  0
   15.3535   35.7355   37.5144 H   0  0  0  0  0  0  0  0  0  0  0  0
  1  2  2  0
  1  3  1  0
  3  4  1  0
  4  5  1  0
  6  1  1  0
  7  6  1  0
  6  8  1  0
  8  9  1  0
  9 10  2  0
 11  9  1  0
 10 12  1  0
 13 11  2  0
 12 14  2  0
 14 13  1  0
 14 15  1  0
 15 16  1  0
 16 17  1  0
 16 18  1  0
 18 19  2  0
 20 18  1  0
 19 21  1  0
 22 20  2  0
 20 23  1  0
 21 24  1  0
 21 25  2  0
 25 22  1  0
 23 26  1  0
 23 27  2  0
 24 28  1  0
 25 29  1  0
 28 29  1  0
  4 30  2  0
  4 31  1  0
 32 31  1  0
 32 33  1  0
 33 34  1  0
 33 35  1  0
 34 36  1  0
 35 37  1  0
 35 38  1  0
 38 36  1  0
 36 39  1  0
 38 40  1  0
 41 39  1  0
 42 39  1  0
 43 41  2  0
 41 44  1  0
 45 42  2  0
 46 43  1  0
 44 47  2  0
 44 45  1  0
 48 46  2  0
 48 47  1  0
 47 49  1  0
  6 50  1  1
  7 51  1  0
  7 52  1  0
  8 53  1  0
  8 54  1  0
 10 55  1  0
 11 56  1  0
 12 57  1  0
 13 58  1  0
 16 59  1  1
 17 60  1  0
 17 61  1  0
 17 62  1  0
 19 63  1  0
 22 64  1  0
 28 65  1  0
 28 66  1  0
 32 67  1  0
 32 68  1  0
 33 69  1  0
 35 70  1  0
 36 71  1  0
 37 72  1  0
 38 73  1  0
 40 74  1  0
 42 75  1  0
 46 76  1  0
 49 77  1  0
 49 78  1  0
M  CHG  3   5  -1  23   1  26  -1
M  END
>  <EmbedRMS>  (92) 
0.080839893116

$$$$

     RDKit          3D

 78 83  0  0  0  0  0  0  0  0999 V2000
   10.2805   43.7659   33.8249 C   0  0  0  0  0  0  0  0  0  0  0  0
   11.4113   43.5905   34.3663 O   0  0  0  0  0  0  0  0  0  0  0  0
    9.3615   42.7249   33.7342 O   0  0  0  0  0  0  0  0  0  0  0  0
    9.8895   41.2265   34.2928 P   0  0  0  0  0  0  0  0  0  0  0  0
   10.3717   41.4579   35.8822 O   0  0  0  0  0  0  0  0  0  0  0  0
    9.9456   45.0733   33.2114 C   0  0  1  0  0  0  0  0  0  0  0  0
   11.0252   46.0297   33.4717 N   0  0  0  0  0  0  0  0  0  0  0  0
    9.7546   44.8549   31.6949 C   0  0  0  0  0  0  0  0  0  0  0  0
    8.7966   45.8423   31.0848 C   0  0  0  0  0  0  0  0  0  0  0  0
    7.4098   45.5998   31.1018 C   0  0  0  0  0  0  0  0  0  0  0  0
    9.2837   46.9876   30.4346 C   0  0  0  0  0  0  0  0  0  0  0  0
    6.5268   46.4984   30.4885 C   0  0  0  0  0  0  0  0  0  0  0  0
    8.3994   47.8861   29.8246 C   0  0  0  0  0  0  0  0  0  0  0  0
    7.0174   47.6541   29.8575 C   0  0  0  0  0  0  0  0  0  0  0  0
    6.1538   48.5719   29.2460 O   0  0  0  0  0  0  0  0  0  0  0  0
    5.2525   49.4196   29.9660 C   0  0  2  0  0  0  0  0  0  0  0  0
    6.0397   50.3207   30.9309 C   0  0  0  0  0  0  0  0  0  0  0  0
    4.1187   48.6082   30.5939 C   0  0  0  0  0  0  0  0  0  0  0  0
    3.9447   48.5625   32.0053 C   0  0  0  0  0  0  0  0  0  0  0  0
    3.2466   47.8176   29.7644 C   0  0  0  0  0  0  0  0  0  0  0  0
    2.9496   47.7466   32.5290 C   0  0  0  0  0  0  0  0  0  0  0  0
    2.2625   46.9944   30.3591 C   0  0  0  0  0  0  0  0  0  0  0  0
    3.3666   47.8077   28.3320 N   0  0  0  0  0  0  0  0  0  0  0  0
    2.6119   47.5504   33.8558 O   0  0  0  0  0  0  0  0  0  0  0  0
    2.1465   46.9940   31.7422 C   0  0  0  0  0  0  0  0  0  0  0  0
    3.1703   46.6361   27.6391 O   0  0  0  0  0  0  0  0  0  0  0  0
    3.4142   48.8780   27.6952 O   0  0  0  0  0  0  0  0  0  0  0  0
    1.5245   46.6148   33.9028 C   0  0  0  0  0  0  0  0  0  0  0  0
    1.2588   46.2845   32.5309 O   0  0  0  0  0  0  0  0  0  0  0  0
    8.8118   40.1844   34.2118 O   0  0  0  0  0  0  0  0  0  0  0  0
   11.2416   40.7945   33.3693 O   0  0  0  0  0  0  0  0  0  0  0  0
   10.9187   40.6915   31.9965 C   0  0  0  0  0  0  0  0  0  0  0  0
   11.5174   39.3818   31.4399 C   0  0  0  0  0  0  0  0  0  0  0  0
   12.7499   39.0860   32.0716 O   0  0  0  0  0  0  0  0  0  0  0  0
   10.6029   38.1908   31.6658 C   0  0  0  0  0  0  0  0  0  0  0  0
   12.9326   37.6784   32.0273 C   0  0  0  0  0  0  0  0  0  0  0  0
    9.6386   38.0791   30.6456 O   0  0  0  0  0  0  0  0  0  0  0  0
   11.5722   37.0170   31.7044 C   0  0  0  0  0  0  0  0  0  0  0  0
   13.4850   37.2123   33.3235 N   0  0  0  0  0  0  0  0  0  0  0  0
   11.6182   36.3392   30.4681 O   0  0  0  0  0  0  0  0  0  0  0  0
   14.4795   36.3312   33.5730 C   0  0  0  0  0  0  0  0  0  0  0  0
   13.1139   37.6278   34.5688 C   0  0  0  0  0  0  0  0  0  0  0  0
   15.2068   35.6143   32.6745 N   0  0  0  0  0  0  0  0  0  0  0  0
   14.6756   36.2306   34.9187 C   0  0  0  0  0  0  0  0  0  0  0  0
   13.8217   37.0457   35.5786 N   0  0  0  0  0  0  0  0  0  0  0  0
   16.1638   34.7597   33.1553 C   0  0  0  0  0  0  0  0  0  0  0  0
   15.6530   35.3509   35.4137 C   0  0  0  0  0  0  0  0  0  0  0  0
   16.3794   34.6315   34.5048 N   0  0  0  0  0  0  0  0  0  0  0  0
   15.9011   35.1935   36.8096 N   0  0  0  0  0  0  0  0  0  0  0  0
    8.9983   45.4366   33.6719 H   0  0  0  0  0  0  0  0  0  0  0  0
   10.7748   46.9368   33.0149 H   0  0  0  0  0  0  0  0  0  0  0  0
   11.0482   46.2273   34.4994 H   0  0  0  0  0  0  0  0  0  0  0  0
   10.7414   44.9112   31.1842 H   0  0  0  0  0  0  0  0  0  0  0  0
    9.3683   43.8350   31.4696 H   0  0  0  0  0  0  0  0  0  0  0  0
    7.0164   44.7114   31.5801 H   0  0  0  0  0  0  0  0  0  0  0  0
   10.3485   47.1848   30.3959 H   0  0  0  0  0  0  0  0  0  0  0  0
    5.4696   46.2760   30.4947 H   0  0  0  0  0  0  0  0  0  0  0  0
    8.7880   48.7691   29.3322 H   0  0  0  0  0  0  0  0  0  0  0  0
    4.7954   50.1200   29.2385 H   0  0  0  0  0  0  0  0  0  0  0  0
    5.3578   51.0354   31.4381 H   0  0  0  0  0  0  0  0  0  0  0  0
    6.5780   49.7161   31.6916 H   0  0  0  0  0  0  0  0  0  0  0  0
    6.7927   50.9073   30.3615 H   0  0  0  0  0  0  0  0  0  0  0  0
    4.5644   49.1232   32.6910 H   0  0  0  0  0  0  0  0  0  0  0  0
    1.5993   46.3823   29.7586 H   0  0  0  0  0  0  0  0  0  0  0  0
    1.8239   45.7052   34.4664 H   0  0  0  0  0  0  0  0  0  0  0  0
    0.6311   47.0875   34.3636 H   0  0  0  0  0  0  0  0  0  0  0  0
   11.3951   41.5471   31.4718 H   0  0  0  0  0  0  0  0  0  0  0  0
    9.8303   40.7417   31.7600 H   0  0  0  0  0  0  0  0  0  0  0  0
   11.6965   39.5067   30.3470 H   0  0  0  0  0  0  0  0  0  0  0  0
   10.1097   38.2630   32.6642 H   0  0  0  0  0  0  0  0  0  0  0  0
   13.6626   37.4470   31.2195 H   0  0  0  0  0  0  0  0  0  0  0  0
    8.8975   38.6947   30.8832 H   0  0  0  0  0  0  0  0  0  0  0  0
   11.2824   36.3077   32.5160 H   0  0  0  0  0  0  0  0  0  0  0  0
   10.8496   35.7108   30.4591 H   0  0  0  0  0  0  0  0  0  0  0  0
   12.3287   38.3523   34.7434 H   0  0  0  0  0  0  0  0  0  0  0  0
   16.7551   34.1772   32.4622 H   0  0  0  0  0  0  0  0  0  0  0  0
   15.3535   35.7350   37.5150 H   0  0  0  0  0  0  0  0  0  0  0  0
   16.6351   34.5290   37.1410 H   0  0  0  0  0  0  0  0  0  0  0  0
  1  2  2  0
  1  3  1  0
  3  4  1  0
  4  5  1  0
  6  1  1  0
  7  6  1  0
  6  8  1  0
  8  9  1  0
  9 10  2  0
 11  9  1  0
 10 12  1  0
 13 11  2  0
 12 14  2  0
 14 13  1  0
 14 15  1  0
 15 16  1  0
 16 17  1  0
 16 18  1  0
 18 19  2  0
 20 18  1  0
 19 21  1  0
 22 20  2  0
 20 23  1  0
 21 24  1  0
 21 25  2  0
 25 22  1  0
 23 26  1  0
 23 27  2  0
 24 28  1  0
 25 29  1  0
 28 29  1  0
  4 30  2  0
  4 31  1  0
 32 31  1  0
 32 33  1  0
 33 34  1  0
 33 35  1  0
 34 36  1  0
 35 37  1  0
 35 38  1  0
 38 36  1  0
 36 39  1  0
 38 40  1  0
 41 39  1  0
 42 39  1  0
 43 41  2  0
 41 44  1  0
 45 42  2  0
 46 43  1  0
 44 47  2  0
 44 45  1  0
 48 46  2  0
 48 47  1  0
 47 49  1  0
  6 50  1  1
  7 51  1  0
  7 52  1  0
  8 53  1  0
  8 54  1  0
 10 55  1  0
 11 56  1  0
 12 57  1  0
 13 58  1  0
 16 59  1  6
 17 60  1  0
 17 61  1  0
 17 62  1  0
 19 63  1  0
 22 64  1  0
 28 65  1  0
 28 66  1  0
 32 67  1  0
 32 68  1  0
 33 69  1  0
 35 70  1  0
 36 71  1  0
 37 72  1  0
 38 73  1  0
 40 74  1  0
 42 75  1  0
 46 76  1  0
 49 77  1  0
 49 78  1  0
M  CHG  3   5  -1  23   1  26  -1
M  END
>  <EmbedRMS>  (93) 
0.0826990085599

$$$$

     RDKit          3D

 78 83  0  0  0  0  0  0  0  0999 V2000
   10.2840   43.7626   33.8276 C   0  0  0  0  0  0  0  0  0  0  0  0
   11.4104   43.5863   34.3767 O   0  0  0  0  0  0  0  0  0  0  0  0
    9.3634   42.7234   33.7351 O   0  0  0  0  0  0  0  0  0  0  0  0
    9.8899   41.2247   34.2940 P   0  0  0  0  0  0  0  0  0  0  0  0
   10.3724   41.4545   35.8837 O   0  0  0  0  0  0  0  0  0  0  0  0
    9.9549   45.0700   33.2065 C   0  0  1  0  0  0  0  0  0  0  0  0
   11.0197   46.0481   33.4572 N   0  0  0  0  0  0  0  0  0  0  0  0
    9.7506   44.8512   31.6924 C   0  0  0  0  0  0  0  0  0  0  0  0
    8.7944   45.8421   31.0873 C   0  0  0  0  0  0  0  0  0  0  0  0
    7.4078   45.6003   31.0999 C   0  0  0  0  0  0  0  0  0  0  0  0
    9.2827   46.9888   30.4440 C   0  0  0  0  0  0  0  0  0  0  0  0
    6.5260   46.4992   30.4841 C   0  0  0  0  0  0  0  0  0  0  0  0
    8.4010   47.8873   29.8322 C   0  0  0  0  0  0  0  0  0  0  0  0
    7.0189   47.6569   29.8481 C   0  0  0  0  0  0  0  0  0  0  0  0
    6.1831   48.5971   29.2229 O   0  0  0  0  0  0  0  0  0  0  0  0
    4.7553   48.5802   29.2388 C   0  0  2  0  0  0  0  0  0  0  0  0
    4.2229   49.5778   28.2097 C   0  0  0  0  0  0  0  0  0  0  0  0
    4.2115   48.8853   30.6272 C   0  0  0  0  0  0  0  0  0  0  0  0
    3.3062   47.9613   31.2047 C   0  0  0  0  0  0  0  0  0  0  0  0
    4.5312   50.0874   31.3442 C   0  0  0  0  0  0  0  0  0  0  0  0
    2.7625   48.2503   32.4495 C   0  0  0  0  0  0  0  0  0  0  0  0
    3.9361   50.3346   32.6011 C   0  0  0  0  0  0  0  0  0  0  0  0
    5.4306   51.0677   30.8128 N   0  0  0  0  0  0  0  0  0  0  0  0
    1.8719   47.4999   33.1929 O   0  0  0  0  0  0  0  0  0  0  0  0
    3.0631   49.3872   33.1176 C   0  0  0  0  0  0  0  0  0  0  0  0
    6.7647   50.7670   30.6750 O   0  0  0  0  0  0  0  0  0  0  0  0
    5.0748   52.2628   30.7597 O   0  0  0  0  0  0  0  0  0  0  0  0
    1.5982   48.2129   34.4068 C   0  0  0  0  0  0  0  0  0  0  0  0
    2.3788   49.4127   34.3176 O   0  0  0  0  0  0  0  0  0  0  0  0
    8.8119   40.1831   34.2121 O   0  0  0  0  0  0  0  0  0  0  0  0
   11.2416   40.7932   33.3699 O   0  0  0  0  0  0  0  0  0  0  0  0
   10.9186   40.6909   31.9972 C   0  0  0  0  0  0  0  0  0  0  0  0
   11.5172   39.3814   31.4407 C   0  0  0  0  0  0  0  0  0  0  0  0
   12.7493   39.0855   32.0727 O   0  0  0  0  0  0  0  0  0  0  0  0
   10.6023   38.1907   31.6665 C   0  0  0  0  0  0  0  0  0  0  0  0
   12.9319   37.6781   32.0281 C   0  0  0  0  0  0  0  0  0  0  0  0
    9.6392   38.0797   30.6452 O   0  0  0  0  0  0  0  0  0  0  0  0
   11.5715   37.0165   31.7056 C   0  0  0  0  0  0  0  0  0  0  0  0
   13.4846   37.2121   33.3235 N   0  0  0  0  0  0  0  0  0  0  0  0
   11.6187   36.3383   30.4694 O   0  0  0  0  0  0  0  0  0  0  0  0
   14.4801   36.3321   33.5724 C   0  0  0  0  0  0  0  0  0  0  0  0
   13.1137   37.6275   34.5687 C   0  0  0  0  0  0  0  0  0  0  0  0
   15.2073   35.6153   32.6738 N   0  0  0  0  0  0  0  0  0  0  0  0
   14.6759   36.2308   34.9179 C   0  0  0  0  0  0  0  0  0  0  0  0
   13.8216   37.0452   35.5781 N   0  0  0  0  0  0  0  0  0  0  0  0
   16.1640   34.7602   33.1546 C   0  0  0  0  0  0  0  0  0  0  0  0
   15.6526   35.3508   35.4129 C   0  0  0  0  0  0  0  0  0  0  0  0
   16.3794   34.6317   34.5041 N   0  0  0  0  0  0  0  0  0  0  0  0
   15.9000   35.1935   36.8088 N   0  0  0  0  0  0  0  0  0  0  0  0
    9.0098   45.4347   33.6671 H   0  0  0  0  0  0  0  0  0  0  0  0
   11.1131   46.1993   34.4886 H   0  0  0  0  0  0  0  0  0  0  0  0
   11.9349   45.6935   33.0930 H   0  0  0  0  0  0  0  0  0  0  0  0
    9.3518   43.8346   31.4759 H   0  0  0  0  0  0  0  0  0  0  0  0
   10.7309   44.8933   31.1677 H   0  0  0  0  0  0  0  0  0  0  0  0
    7.0129   44.7134   31.5801 H   0  0  0  0  0  0  0  0  0  0  0  0
   10.3467   47.1889   30.4140 H   0  0  0  0  0  0  0  0  0  0  0  0
    5.4702   46.2764   30.5050 H   0  0  0  0  0  0  0  0  0  0  0  0
    8.7940   48.7698   29.3435 H   0  0  0  0  0  0  0  0  0  0  0  0
    4.4121   47.5781   28.8975 H   0  0  0  0  0  0  0  0  0  0  0  0
    3.1122   49.5973   28.2328 H   0  0  0  0  0  0  0  0  0  0  0  0
    4.5468   49.2713   27.1925 H   0  0  0  0  0  0  0  0  0  0  0  0
    4.6080   50.6000   28.3999 H   0  0  0  0  0  0  0  0  0  0  0  0
    3.0248   47.0478   30.6964 H   0  0  0  0  0  0  0  0  0  0  0  0
    4.1581   51.2348   33.1599 H   0  0  0  0  0  0  0  0  0  0  0  0
    0.5183   48.4622   34.4706 H   0  0  0  0  0  0  0  0  0  0  0  0
    1.9169   47.6128   35.2848 H   0  0  0  0  0  0  0  0  0  0  0  0
    9.8300   40.7411   31.7610 H   0  0  0  0  0  0  0  0  0  0  0  0
   11.3972   41.5459   31.4735 H   0  0  0  0  0  0  0  0  0  0  0  0
   11.6974   39.5067   30.3480 H   0  0  0  0  0  0  0  0  0  0  0  0
   10.1077   38.2647   32.6645 H   0  0  0  0  0  0  0  0  0  0  0  0
   13.6621   37.4467   31.2208 H   0  0  0  0  0  0  0  0  0  0  0  0
    8.8974   38.6943   30.8831 H   0  0  0  0  0  0  0  0  0  0  0  0
   11.2806   36.3073   32.5170 H   0  0  0  0  0  0  0  0  0  0  0  0
   10.8493   35.7110   30.4585 H   0  0  0  0  0  0  0  0  0  0  0  0
   12.3290   38.3524   34.7444 H   0  0  0  0  0  0  0  0  0  0  0  0
   16.7559   34.1780   32.4619 H   0  0  0  0  0  0  0  0  0  0  0  0
   15.3532   35.7362   37.5137 H   0  0  0  0  0  0  0  0  0  0  0  0
   16.6345   34.5301   37.1414 H   0  0  0  0  0  0  0  0  0  0  0  0
  1  2  2  0
  1  3  1  0
  3  4  1  0
  4  5  1  0
  6  1  1  0
  7  6  1  0
  6  8  1  0
  8  9  1  0
  9 10  2  0
 11  9  1  0
 10 12  1  0
 13 11  2  0
 12 14  2  0
 14 13  1  0
 14 15  1  0
 15 16  1  0
 16 17  1  0
 16 18  1  0
 18 19  2  0
 20 18  1  0
 19 21  1  0
 22 20  2  0
 20 23  1  0
 21 24  1  0
 21 25  2  0
 25 22  1  0
 23 26  1  0
 23 27  2  0
 24 28  1  0
 25 29  1  0
 28 29  1  0
  4 30  2  0
  4 31  1  0
 32 31  1  0
 32 33  1  0
 33 34  1  0
 33 35  1  0
 34 36  1  0
 35 37  1  0
 35 38  1  0
 38 36  1  0
 36 39  1  0
 38 40  1  0
 41 39  1  0
 42 39  1  0
 43 41  2  0
 41 44  1  0
 45 42  2  0
 46 43  1  0
 44 47  2  0
 44 45  1  0
 48 46  2  0
 48 47  1  0
 47 49  1  0
  6 50  1  1
  7 51  1  0
  7 52  1  0
  8 53  1  0
  8 54  1  0
 10 55  1  0
 11 56  1  0
 12 57  1  0
 13 58  1  0
 16 59  1  6
 17 60  1  0
 17 61  1  0
 17 62  1  0
 19 63  1  0
 22 64  1  0
 28 65  1  0
 28 66  1  0
 32 67  1  0
 32 68  1  0
 33 69  1  0
 35 70  1  0
 36 71  1  0
 37 72  1  0
 38 73  1  0
 40 74  1  0
 42 75  1  0
 46 76  1  0
 49 77  1  0
 49 78  1  0
M  CHG  3   5  -1  23   1  26  -1
M  END
>  <EmbedRMS>  (94) 
0.0838115373364

$$$$

     RDKit          3D

 78 83  0  0  0  0  0  0  0  0999 V2000
   10.2835   43.7661   33.8256 C   0  0  0  0  0  0  0  0  0  0  0  0
   11.4102   43.5930   34.3752 O   0  0  0  0  0  0  0  0  0  0  0  0
    9.3638   42.7255   33.7349 O   0  0  0  0  0  0  0  0  0  0  0  0
    9.8903   41.2267   34.2942 P   0  0  0  0  0  0  0  0  0  0  0  0
   10.3735   41.4561   35.8837 O   0  0  0  0  0  0  0  0  0  0  0  0
    9.9547   45.0694   33.2035 C   0  0  1  0  0  0  0  0  0  0  0  0
   11.0274   46.0321   33.4756 N   0  0  0  0  0  0  0  0  0  0  0  0
    9.7466   44.8480   31.6876 C   0  0  0  0  0  0  0  0  0  0  0  0
    8.7923   45.8408   31.0844 C   0  0  0  0  0  0  0  0  0  0  0  0
    7.4055   45.6018   31.0994 C   0  0  0  0  0  0  0  0  0  0  0  0
    9.2822   46.9878   30.4424 C   0  0  0  0  0  0  0  0  0  0  0  0
    6.5267   46.5035   30.4842 C   0  0  0  0  0  0  0  0  0  0  0  0
    8.4030   47.8900   29.8322 C   0  0  0  0  0  0  0  0  0  0  0  0
    7.0142   47.6524   29.8464 C   0  0  0  0  0  0  0  0  0  0  0  0
    6.0893   48.5198   29.2424 O   0  0  0  0  0  0  0  0  0  0  0  0
    6.4181   49.7049   28.5113 C   0  0  2  0  0  0  0  0  0  0  0  0
    5.1314   50.4728   28.2183 C   0  0  0  0  0  0  0  0  0  0  0  0
    7.1184   49.3674   27.2051 C   0  0  0  0  0  0  0  0  0  0  0  0
    6.7021   48.2215   26.4826 C   0  0  0  0  0  0  0  0  0  0  0  0
    8.1131   50.2285   26.6365 C   0  0  0  0  0  0  0  0  0  0  0  0
    7.2919   47.9618   25.2524 C   0  0  0  0  0  0  0  0  0  0  0  0
    8.6677   49.9219   25.3738 C   0  0  0  0  0  0  0  0  0  0  0  0
    8.5501   51.4169   27.3090 N   0  0  0  0  0  0  0  0  0  0  0  0
    7.0495   46.9114   24.3883 O   0  0  0  0  0  0  0  0  0  0  0  0
    8.2329   48.7761   24.7212 C   0  0  0  0  0  0  0  0  0  0  0  0
    9.1674   51.3225   28.5343 O   0  0  0  0  0  0  0  0  0  0  0  0
    8.6261   52.4909   26.6776 O   0  0  0  0  0  0  0  0  0  0  0  0
    7.8960   47.0769   23.2424 C   0  0  0  0  0  0  0  0  0  0  0  0
    8.6342   48.2802   23.4957 O   0  0  0  0  0  0  0  0  0  0  0  0
    8.8122   40.1850   34.2130 O   0  0  0  0  0  0  0  0  0  0  0  0
   11.2407   40.7940   33.3693 O   0  0  0  0  0  0  0  0  0  0  0  0
   10.9152   40.6905   31.9974 C   0  0  0  0  0  0  0  0  0  0  0  0
   11.5252   39.3886   31.4375 C   0  0  0  0  0  0  0  0  0  0  0  0
   12.7500   39.0874   32.0799 O   0  0  0  0  0  0  0  0  0  0  0  0
   10.6092   38.1926   31.6470 C   0  0  0  0  0  0  0  0  0  0  0  0
   12.9332   37.6792   32.0294 C   0  0  0  0  0  0  0  0  0  0  0  0
    9.6122   38.0895   30.6542 O   0  0  0  0  0  0  0  0  0  0  0  0
   11.5743   37.0145   31.7024 C   0  0  0  0  0  0  0  0  0  0  0  0
   13.4844   37.2108   33.3241 N   0  0  0  0  0  0  0  0  0  0  0  0
   11.6297   36.3239   30.4740 O   0  0  0  0  0  0  0  0  0  0  0  0
   14.4802   36.3313   33.5727 C   0  0  0  0  0  0  0  0  0  0  0  0
   13.1138   37.6266   34.5692 C   0  0  0  0  0  0  0  0  0  0  0  0
   15.2075   35.6149   32.6739 N   0  0  0  0  0  0  0  0  0  0  0  0
   14.6761   36.2303   34.9181 C   0  0  0  0  0  0  0  0  0  0  0  0
   13.8220   37.0447   35.5785 N   0  0  0  0  0  0  0  0  0  0  0  0
   16.1643   34.7600   33.1547 C   0  0  0  0  0  0  0  0  0  0  0  0
   15.6529   35.3505   35.4130 C   0  0  0  0  0  0  0  0  0  0  0  0
   16.3798   34.6315   34.5042 N   0  0  0  0  0  0  0  0  0  0  0  0
   15.9003   35.1932   36.8090 N   0  0  0  0  0  0  0  0  0  0  0  0
    9.0121   45.4317   33.6714 H   0  0  0  0  0  0  0  0  0  0  0  0
   11.8906   45.7658   32.9469 H   0  0  0  0  0  0  0  0  0  0  0  0
   10.7260   46.9687   33.1213 H   0  0  0  0  0  0  0  0  0  0  0  0
    9.3414   43.8329   31.4762 H   0  0  0  0  0  0  0  0  0  0  0  0
   10.7229   44.8814   31.1556 H   0  0  0  0  0  0  0  0  0  0  0  0
    7.0082   44.7170   31.5815 H   0  0  0  0  0  0  0  0  0  0  0  0
   10.3468   47.1849   30.4115 H   0  0  0  0  0  0  0  0  0  0  0  0
    5.4622   46.3068   30.5011 H   0  0  0  0  0  0  0  0  0  0  0  0
    8.8159   48.7632   29.3499 H   0  0  0  0  0  0  0  0  0  0  0  0
    7.0422   50.3503   29.1594 H   0  0  0  0  0  0  0  0  0  0  0  0
    5.3608   51.4141   27.6741 H   0  0  0  0  0  0  0  0  0  0  0  0
    4.4406   49.8563   27.6039 H   0  0  0  0  0  0  0  0  0  0  0  0
    4.6234   50.7321   29.1714 H   0  0  0  0  0  0  0  0  0  0  0  0
    5.9337   47.5595   26.8608 H   0  0  0  0  0  0  0  0  0  0  0  0
    9.4200   50.5554   24.9216 H   0  0  0  0  0  0  0  0  0  0  0  0
    7.2818   47.1903   22.3245 H   0  0  0  0  0  0  0  0  0  0  0  0
    8.5890   46.2147   23.1491 H   0  0  0  0  0  0  0  0  0  0  0  0
   11.3802   41.5529   31.4733 H   0  0  0  0  0  0  0  0  0  0  0  0
    9.8243   40.7216   31.7643 H   0  0  0  0  0  0  0  0  0  0  0  0
   11.7266   39.5311   30.3513 H   0  0  0  0  0  0  0  0  0  0  0  0
   10.1110   38.2747   32.6387 H   0  0  0  0  0  0  0  0  0  0  0  0
   13.6652   37.4519   31.2226 H   0  0  0  0  0  0  0  0  0  0  0  0
   10.0511   38.1143   29.7645 H   0  0  0  0  0  0  0  0  0  0  0  0
   11.2762   36.3141   32.5189 H   0  0  0  0  0  0  0  0  0  0  0  0
   10.8593   35.6978   30.4640 H   0  0  0  0  0  0  0  0  0  0  0  0
   12.3294   38.3518   34.7449 H   0  0  0  0  0  0  0  0  0  0  0  0
   16.7563   34.1779   32.4620 H   0  0  0  0  0  0  0  0  0  0  0  0
   15.3534   35.7359   37.5138 H   0  0  0  0  0  0  0  0  0  0  0  0
   16.6349   34.5300   37.1415 H   0  0  0  0  0  0  0  0  0  0  0  0
  1  2  2  0
  1  3  1  0
  3  4  1  0
  4  5  1  0
  6  1  1  0
  7  6  1  0
  6  8  1  0
  8  9  1  0
  9 10  2  0
 11  9  1  0
 10 12  1  0
 13 11  2  0
 12 14  2  0
 14 13  1  0
 14 15  1  0
 15 16  1  0
 16 17  1  0
 16 18  1  0
 18 19  2  0
 20 18  1  0
 19 21  1  0
 22 20  2  0
 20 23  1  0
 21 24  1  0
 21 25  2  0
 25 22  1  0
 23 26  1  0
 23 27  2  0
 24 28  1  0
 25 29  1  0
 28 29  1  0
  4 30  2  0
  4 31  1  0
 32 31  1  0
 32 33  1  0
 33 34  1  0
 33 35  1  0
 34 36  1  0
 35 37  1  0
 35 38  1  0
 38 36  1  0
 36 39  1  0
 38 40  1  0
 41 39  1  0
 42 39  1  0
 43 41  2  0
 41 44  1  0
 45 42  2  0
 46 43  1  0
 44 47  2  0
 44 45  1  0
 48 46  2  0
 48 47  1  0
 47 49  1  0
  6 50  1  1
  7 51  1  0
  7 52  1  0
  8 53  1  0
  8 54  1  0
 10 55  1  0
 11 56  1  0
 12 57  1  0
 13 58  1  0
 16 59  1  1
 17 60  1  0
 17 61  1  0
 17 62  1  0
 19 63  1  0
 22 64  1  0
 28 65  1  0
 28 66  1  0
 32 67  1  0
 32 68  1  0
 33 69  1  0
 35 70  1  0
 36 71  1  0
 37 72  1  0
 38 73  1  0
 40 74  1  0
 42 75  1  0
 46 76  1  0
 49 77  1  0
 49 78  1  0
M  CHG  3   5  -1  23   1  26  -1
M  END
>  <EmbedRMS>  (95) 
0.0818244164404

$$$$

     RDKit          3D

 78 83  0  0  0  0  0  0  0  0999 V2000
   10.2804   43.7664   33.8246 C   0  0  0  0  0  0  0  0  0  0  0  0
   11.4110   43.5920   34.3665 O   0  0  0  0  0  0  0  0  0  0  0  0
    9.3621   42.7247   33.7341 O   0  0  0  0  0  0  0  0  0  0  0  0
    9.8904   41.2264   34.2936 P   0  0  0  0  0  0  0  0  0  0  0  0
   10.3731   41.4566   35.8831 O   0  0  0  0  0  0  0  0  0  0  0  0
    9.9458   45.0736   33.2107 C   0  0  1  0  0  0  0  0  0  0  0  0
   11.0265   46.0292   33.4703 N   0  0  0  0  0  0  0  0  0  0  0  0
    9.7534   44.8541   31.6942 C   0  0  0  0  0  0  0  0  0  0  0  0
    8.7953   45.8411   31.0838 C   0  0  0  0  0  0  0  0  0  0  0  0
    7.4070   45.6009   31.1020 C   0  0  0  0  0  0  0  0  0  0  0  0
    9.2832   46.9896   30.4397 C   0  0  0  0  0  0  0  0  0  0  0  0
    6.5256   46.5024   30.4882 C   0  0  0  0  0  0  0  0  0  0  0  0
    8.4004   47.8908   29.8334 C   0  0  0  0  0  0  0  0  0  0  0  0
    7.0205   47.6449   29.8446 C   0  0  0  0  0  0  0  0  0  0  0  0
    6.1401   48.5439   29.2354 O   0  0  0  0  0  0  0  0  0  0  0  0
    5.7942   48.4927   27.8474 C   0  0  2  0  0  0  0  0  0  0  0  0
    4.9187   47.2683   27.5426 C   0  0  0  0  0  0  0  0  0  0  0  0
    7.0328   48.6014   26.9631 C   0  0  0  0  0  0  0  0  0  0  0  0
    7.7555   47.4321   26.6075 C   0  0  0  0  0  0  0  0  0  0  0  0
    7.4974   49.8753   26.4889 C   0  0  0  0  0  0  0  0  0  0  0  0
    8.8529   47.5576   25.7669 C   0  0  0  0  0  0  0  0  0  0  0  0
    8.6085   49.9365   25.6178 C   0  0  0  0  0  0  0  0  0  0  0  0
    6.8825   51.1067   26.9012 N   0  0  0  0  0  0  0  0  0  0  0  0
    9.6869   46.5643   25.2906 O   0  0  0  0  0  0  0  0  0  0  0  0
    9.2566   48.7551   25.2867 C   0  0  0  0  0  0  0  0  0  0  0  0
    6.8273   52.1693   26.0289 O   0  0  0  0  0  0  0  0  0  0  0  0
    6.6071   51.3007   28.1031 O   0  0  0  0  0  0  0  0  0  0  0  0
   10.6769   47.1805   24.4559 C   0  0  0  0  0  0  0  0  0  0  0  0
   10.3654   48.5801   24.4812 O   0  0  0  0  0  0  0  0  0  0  0  0
    8.8129   40.1841   34.2124 O   0  0  0  0  0  0  0  0  0  0  0  0
   11.2419   40.7944   33.3695 O   0  0  0  0  0  0  0  0  0  0  0  0
   10.9186   40.6911   31.9969 C   0  0  0  0  0  0  0  0  0  0  0  0
   11.5172   39.3815   31.4407 C   0  0  0  0  0  0  0  0  0  0  0  0
   12.7492   39.0856   32.0729 O   0  0  0  0  0  0  0  0  0  0  0  0
   10.6023   38.1908   31.6665 C   0  0  0  0  0  0  0  0  0  0  0  0
   12.9319   37.6781   32.0281 C   0  0  0  0  0  0  0  0  0  0  0  0
    9.6392   38.0798   30.6452 O   0  0  0  0  0  0  0  0  0  0  0  0
   11.5715   37.0166   31.7056 C   0  0  0  0  0  0  0  0  0  0  0  0
   13.4846   37.2121   33.3235 N   0  0  0  0  0  0  0  0  0  0  0  0
   11.6187   36.3384   30.4695 O   0  0  0  0  0  0  0  0  0  0  0  0
   14.4801   36.3321   33.5724 C   0  0  0  0  0  0  0  0  0  0  0  0
   13.1137   37.6275   34.5688 C   0  0  0  0  0  0  0  0  0  0  0  0
   15.2073   35.6153   32.6738 N   0  0  0  0  0  0  0  0  0  0  0  0
   14.6759   36.2308   34.9179 C   0  0  0  0  0  0  0  0  0  0  0  0
   13.8216   37.0452   35.5781 N   0  0  0  0  0  0  0  0  0  0  0  0
   16.1640   34.7602   33.1546 C   0  0  0  0  0  0  0  0  0  0  0  0
   15.6526   35.3508   35.4129 C   0  0  0  0  0  0  0  0  0  0  0  0
   16.3794   34.6317   34.5041 N   0  0  0  0  0  0  0  0  0  0  0  0
   15.8999   35.1934   36.8088 N   0  0  0  0  0  0  0  0  0  0  0  0
    8.9994   45.4381   33.6717 H   0  0  0  0  0  0  0  0  0  0  0  0
   11.0500   46.2279   34.4976 H   0  0  0  0  0  0  0  0  0  0  0  0
   10.7763   46.9368   33.0151 H   0  0  0  0  0  0  0  0  0  0  0  0
    9.3636   43.8354   31.4707 H   0  0  0  0  0  0  0  0  0  0  0  0
   10.7405   44.9076   31.1827 H   0  0  0  0  0  0  0  0  0  0  0  0
    7.0115   44.7178   31.5883 H   0  0  0  0  0  0  0  0  0  0  0  0
   10.3469   47.1900   30.4068 H   0  0  0  0  0  0  0  0  0  0  0  0
    5.4604   46.3111   30.5099 H   0  0  0  0  0  0  0  0  0  0  0  0
    8.7892   48.7765   29.3471 H   0  0  0  0  0  0  0  0  0  0  0  0
    5.1354   49.3612   27.6390 H   0  0  0  0  0  0  0  0  0  0  0  0
    4.6885   47.2227   26.4568 H   0  0  0  0  0  0  0  0  0  0  0  0
    5.4103   46.3235   27.8506 H   0  0  0  0  0  0  0  0  0  0  0  0
    3.9618   47.3486   28.1008 H   0  0  0  0  0  0  0  0  0  0  0  0
    7.4823   46.4523   26.9717 H   0  0  0  0  0  0  0  0  0  0  0  0
    8.9774   50.8811   25.2395 H   0  0  0  0  0  0  0  0  0  0  0  0
   10.6024   46.7900   23.4193 H   0  0  0  0  0  0  0  0  0  0  0  0
   11.6916   47.0062   24.8711 H   0  0  0  0  0  0  0  0  0  0  0  0
   11.3967   41.5460   31.4725 H   0  0  0  0  0  0  0  0  0  0  0  0
    9.8299   40.7409   31.7610 H   0  0  0  0  0  0  0  0  0  0  0  0
   11.6975   39.5066   30.3481 H   0  0  0  0  0  0  0  0  0  0  0  0
   10.1076   38.2648   32.6645 H   0  0  0  0  0  0  0  0  0  0  0  0
   13.6621   37.4468   31.2209 H   0  0  0  0  0  0  0  0  0  0  0  0
    8.8974   38.6943   30.8831 H   0  0  0  0  0  0  0  0  0  0  0  0
   11.2806   36.3073   32.5170 H   0  0  0  0  0  0  0  0  0  0  0  0
   10.8493   35.7110   30.4585 H   0  0  0  0  0  0  0  0  0  0  0  0
   12.3290   38.3523   34.7444 H   0  0  0  0  0  0  0  0  0  0  0  0
   16.7559   34.1780   32.4619 H   0  0  0  0  0  0  0  0  0  0  0  0
   16.6344   34.5301   37.1414 H   0  0  0  0  0  0  0  0  0  0  0  0
   15.3531   35.7362   37.5137 H   0  0  0  0  0  0  0  0  0  0  0  0
  1  2  2  0
  1  3  1  0
  3  4  1  0
  4  5  1  0
  6  1  1  0
  7  6  1  0
  6  8  1  0
  8  9  1  0
  9 10  2  0
 11  9  1  0
 10 12  1  0
 13 11  2  0
 12 14  2  0
 14 13  1  0
 14 15  1  0
 15 16  1  0
 16 17  1  0
 16 18  1  0
 18 19  2  0
 20 18  1  0
 19 21  1  0
 22 20  2  0
 20 23  1  0
 21 24  1  0
 21 25  2  0
 25 22  1  0
 23 26  1  0
 23 27  2  0
 24 28  1  0
 25 29  1  0
 28 29  1  0
  4 30  2  0
  4 31  1  0
 32 31  1  0
 32 33  1  0
 33 34  1  0
 33 35  1  0
 34 36  1  0
 35 37  1  0
 35 38  1  0
 38 36  1  0
 36 39  1  0
 38 40  1  0
 41 39  1  0
 42 39  1  0
 43 41  2  0
 41 44  1  0
 45 42  2  0
 46 43  1  0
 44 47  2  0
 44 45  1  0
 48 46  2  0
 48 47  1  0
 47 49  1  0
  6 50  1  1
  7 51  1  0
  7 52  1  0
  8 53  1  0
  8 54  1  0
 10 55  1  0
 11 56  1  0
 12 57  1  0
 13 58  1  0
 16 59  1  6
 17 60  1  0
 17 61  1  0
 17 62  1  0
 19 63  1  0
 22 64  1  0
 28 65  1  0
 28 66  1  0
 32 67  1  0
 32 68  1  0
 33 69  1  0
 35 70  1  0
 36 71  1  0
 37 72  1  0
 38 73  1  0
 40 74  1  0
 42 75  1  0
 46 76  1  0
 49 77  1  0
 49 78  1  0
M  CHG  3   5  -1  23   1  26  -1
M  END
>  <EmbedRMS>  (96) 
0.082884691132

$$$$

     RDKit          3D

 78 83  0  0  0  0  0  0  0  0999 V2000
   10.2835   43.7661   33.8256 C   0  0  0  0  0  0  0  0  0  0  0  0
   11.4102   43.5931   34.3753 O   0  0  0  0  0  0  0  0  0  0  0  0
    9.3640   42.7252   33.7347 O   0  0  0  0  0  0  0  0  0  0  0  0
    9.8908   41.2264   34.2939 P   0  0  0  0  0  0  0  0  0  0  0  0
   10.3732   41.4559   35.8835 O   0  0  0  0  0  0  0  0  0  0  0  0
    9.9546   45.0694   33.2034 C   0  0  1  0  0  0  0  0  0  0  0  0
   11.0273   46.0321   33.4755 N   0  0  0  0  0  0  0  0  0  0  0  0
    9.7467   44.8479   31.6875 C   0  0  0  0  0  0  0  0  0  0  0  0
    8.7924   45.8404   31.0840 C   0  0  0  0  0  0  0  0  0  0  0  0
    7.4056   45.6018   31.0996 C   0  0  0  0  0  0  0  0  0  0  0  0
    9.2821   46.9879   30.4428 C   0  0  0  0  0  0  0  0  0  0  0  0
    6.5269   46.5039   30.4851 C   0  0  0  0  0  0  0  0  0  0  0  0
    8.4029   47.8905   29.8329 C   0  0  0  0  0  0  0  0  0  0  0  0
    7.0142   47.6519   29.8450 C   0  0  0  0  0  0  0  0  0  0  0  0
    6.0869   48.5179   29.2424 O   0  0  0  0  0  0  0  0  0  0  0  0
    6.4086   49.6497   28.4331 C   0  0  2  0  0  0  0  0  0  0  0  0
    5.1514   50.4905   28.2080 C   0  0  0  0  0  0  0  0  0  0  0  0
    7.0313   49.2296   27.1082 C   0  0  0  0  0  0  0  0  0  0  0  0
    8.2973   49.7707   26.7727 C   0  0  0  0  0  0  0  0  0  0  0  0
    6.3714   48.3669   26.1658 C   0  0  0  0  0  0  0  0  0  0  0  0
    8.8582   49.4453   25.5451 C   0  0  0  0  0  0  0  0  0  0  0  0
    6.9851   48.0857   24.9251 C   0  0  0  0  0  0  0  0  0  0  0  0
    5.0819   47.7961   26.4257 N   0  0  0  0  0  0  0  0  0  0  0  0
   10.0693   49.8525   25.0194 O   0  0  0  0  0  0  0  0  0  0  0  0
    8.2294   48.6398   24.6599 C   0  0  0  0  0  0  0  0  0  0  0  0
    4.1216   47.8229   25.4411 O   0  0  0  0  0  0  0  0  0  0  0  0
    4.9161   47.0419   27.4048 O   0  0  0  0  0  0  0  0  0  0  0  0
   10.2086   49.2614   23.7202 C   0  0  0  0  0  0  0  0  0  0  0  0
    9.0112   48.4954   23.5299 O   0  0  0  0  0  0  0  0  0  0  0  0
    8.8127   40.1847   34.2122 O   0  0  0  0  0  0  0  0  0  0  0  0
   11.2421   40.7941   33.3697 O   0  0  0  0  0  0  0  0  0  0  0  0
   10.9187   40.6911   31.9971 C   0  0  0  0  0  0  0  0  0  0  0  0
   11.5172   39.3815   31.4407 C   0  0  0  0  0  0  0  0  0  0  0  0
   12.7493   39.0856   32.0728 O   0  0  0  0  0  0  0  0  0  0  0  0
   10.6023   38.1908   31.6665 C   0  0  0  0  0  0  0  0  0  0  0  0
   12.9319   37.6781   32.0281 C   0  0  0  0  0  0  0  0  0  0  0  0
    9.6392   38.0798   30.6452 O   0  0  0  0  0  0  0  0  0  0  0  0
   11.5715   37.0166   31.7056 C   0  0  0  0  0  0  0  0  0  0  0  0
   13.4847   37.2121   33.3235 N   0  0  0  0  0  0  0  0  0  0  0  0
   11.6187   36.3383   30.4695 O   0  0  0  0  0  0  0  0  0  0  0  0
   14.4801   36.3321   33.5724 C   0  0  0  0  0  0  0  0  0  0  0  0
   13.1137   37.6275   34.5688 C   0  0  0  0  0  0  0  0  0  0  0  0
   15.2073   35.6153   32.6738 N   0  0  0  0  0  0  0  0  0  0  0  0
   14.6759   36.2308   34.9179 C   0  0  0  0  0  0  0  0  0  0  0  0
   13.8216   37.0452   35.5781 N   0  0  0  0  0  0  0  0  0  0  0  0
   16.1640   34.7602   33.1546 C   0  0  0  0  0  0  0  0  0  0  0  0
   15.6526   35.3508   35.4129 C   0  0  0  0  0  0  0  0  0  0  0  0
   16.3794   34.6317   34.5041 N   0  0  0  0  0  0  0  0  0  0  0  0
   15.8999   35.1934   36.8088 N   0  0  0  0  0  0  0  0  0  0  0  0
    9.0120   45.4316   33.6712 H   0  0  0  0  0  0  0  0  0  0  0  0
   10.7258   46.9687   33.1213 H   0  0  0  0  0  0  0  0  0  0  0  0
   11.8905   45.7659   32.9468 H   0  0  0  0  0  0  0  0  0  0  0  0
   10.7230   44.8813   31.1555 H   0  0  0  0  0  0  0  0  0  0  0  0
    9.3416   43.8327   31.4761 H   0  0  0  0  0  0  0  0  0  0  0  0
    7.0083   44.7172   31.5819 H   0  0  0  0  0  0  0  0  0  0  0  0
   10.3465   47.1864   30.4146 H   0  0  0  0  0  0  0  0  0  0  0  0
    5.4624   46.3072   30.5024 H   0  0  0  0  0  0  0  0  0  0  0  0
    8.8169   48.7689   29.3621 H   0  0  0  0  0  0  0  0  0  0  0  0
    7.1092   50.2993   29.0038 H   0  0  0  0  0  0  0  0  0  0  0  0
    4.3416   49.8931   27.7427 H   0  0  0  0  0  0  0  0  0  0  0  0
    4.7805   50.8732   29.1826 H   0  0  0  0  0  0  0  0  0  0  0  0
    5.3828   51.3596   27.5555 H   0  0  0  0  0  0  0  0  0  0  0  0
    8.8272   50.4359   27.4427 H   0  0  0  0  0  0  0  0  0  0  0  0
    6.5083   47.4439   24.1953 H   0  0  0  0  0  0  0  0  0  0  0  0
   11.0971   48.5963   23.6941 H   0  0  0  0  0  0  0  0  0  0  0  0
   10.2850   50.0521   22.9447 H   0  0  0  0  0  0  0  0  0  0  0  0
    9.8299   40.7410   31.7613 H   0  0  0  0  0  0  0  0  0  0  0  0
   11.3968   41.5460   31.4728 H   0  0  0  0  0  0  0  0  0  0  0  0
   11.6975   39.5067   30.3481 H   0  0  0  0  0  0  0  0  0  0  0  0
   10.1077   38.2648   32.6645 H   0  0  0  0  0  0  0  0  0  0  0  0
   13.6621   37.4467   31.2209 H   0  0  0  0  0  0  0  0  0  0  0  0
    8.8975   38.6944   30.8831 H   0  0  0  0  0  0  0  0  0  0  0  0
   11.2806   36.3073   32.5170 H   0  0  0  0  0  0  0  0  0  0  0  0
   10.8492   35.7110   30.4586 H   0  0  0  0  0  0  0  0  0  0  0  0
   12.3290   38.3523   34.7444 H   0  0  0  0  0  0  0  0  0  0  0  0
   16.7559   34.1780   32.4619 H   0  0  0  0  0  0  0  0  0  0  0  0
   16.6344   34.5301   37.1414 H   0  0  0  0  0  0  0  0  0  0  0  0
   15.3532   35.7362   37.5137 H   0  0  0  0  0  0  0  0  0  0  0  0
  1  2  2  0
  1  3  1  0
  3  4  1  0
  4  5  1  0
  6  1  1  0
  7  6  1  0
  6  8  1  0
  8  9  1  0
  9 10  2  0
 11  9  1  0
 10 12  1  0
 13 11  2  0
 12 14  2  0
 14 13  1  0
 14 15  1  0
 15 16  1  0
 16 17  1  0
 16 18  1  0
 18 19  2  0
 20 18  1  0
 19 21  1  0
 22 20  2  0
 20 23  1  0
 21 24  1  0
 21 25  2  0
 25 22  1  0
 23 26  1  0
 23 27  2  0
 24 28  1  0
 25 29  1  0
 28 29  1  0
  4 30  2  0
  4 31  1  0
 32 31  1  0
 32 33  1  0
 33 34  1  0
 33 35  1  0
 34 36  1  0
 35 37  1  0
 35 38  1  0
 38 36  1  0
 36 39  1  0
 38 40  1  0
 41 39  1  0
 42 39  1  0
 43 41  2  0
 41 44  1  0
 45 42  2  0
 46 43  1  0
 44 47  2  0
 44 45  1  0
 48 46  2  0
 48 47  1  0
 47 49  1  0
  6 50  1  1
  7 51  1  0
  7 52  1  0
  8 53  1  0
  8 54  1  0
 10 55  1  0
 11 56  1  0
 12 57  1  0
 13 58  1  0
 16 59  1  1
 17 60  1  0
 17 61  1  0
 17 62  1  0
 19 63  1  0
 22 64  1  0
 28 65  1  0
 28 66  1  0
 32 67  1  0
 32 68  1  0
 33 69  1  0
 35 70  1  0
 36 71  1  0
 37 72  1  0
 38 73  1  0
 40 74  1  0
 42 75  1  0
 46 76  1  0
 49 77  1  0
 49 78  1  0
M  CHG  3   5  -1  23   1  26  -1
M  END
>  <EmbedRMS>  (97) 
0.0829570318666

$$$$

     RDKit          3D

 78 83  0  0  0  0  0  0  0  0999 V2000
   10.2800   43.7668   33.8249 C   0  0  0  0  0  0  0  0  0  0  0  0
   11.4108   43.5924   34.3664 O   0  0  0  0  0  0  0  0  0  0  0  0
    9.3617   42.7251   33.7344 O   0  0  0  0  0  0  0  0  0  0  0  0
    9.8899   41.2268   34.2940 P   0  0  0  0  0  0  0  0  0  0  0  0
   10.3734   41.4568   35.8832 O   0  0  0  0  0  0  0  0  0  0  0  0
    9.9451   45.0741   33.2111 C   0  0  1  0  0  0  0  0  0  0  0  0
   11.0253   46.0301   33.4709 N   0  0  0  0  0  0  0  0  0  0  0  0
    9.7536   44.8544   31.6948 C   0  0  0  0  0  0  0  0  0  0  0  0
    8.7955   45.8411   31.0842 C   0  0  0  0  0  0  0  0  0  0  0  0
    7.4077   45.5984   31.0992 C   0  0  0  0  0  0  0  0  0  0  0  0
    9.2835   46.9877   30.4364 C   0  0  0  0  0  0  0  0  0  0  0  0
    6.5268   46.4986   30.4836 C   0  0  0  0  0  0  0  0  0  0  0  0
    8.4009   47.8875   29.8269 C   0  0  0  0  0  0  0  0  0  0  0  0
    7.0202   47.6533   29.8592 C   0  0  0  0  0  0  0  0  0  0  0  0
    6.1406   48.5501   29.2481 O   0  0  0  0  0  0  0  0  0  0  0  0
    5.4946   49.6279   29.9337 C   0  0  2  0  0  0  0  0  0  0  0  0
    6.4657   50.7828   30.2006 C   0  0  0  0  0  0  0  0  0  0  0  0
    4.7067   49.1367   31.1480 C   0  0  0  0  0  0  0  0  0  0  0  0
    3.3524   48.7774   30.9318 C   0  0  0  0  0  0  0  0  0  0  0  0
    5.2742   48.9279   32.4529 C   0  0  0  0  0  0  0  0  0  0  0  0
    2.6228   48.2458   31.9872 C   0  0  0  0  0  0  0  0  0  0  0  0
    4.4854   48.3800   33.4867 C   0  0  0  0  0  0  0  0  0  0  0  0
    6.6254   49.2747   32.7591 N   0  0  0  0  0  0  0  0  0  0  0  0
    1.3049   47.8309   31.9972 O   0  0  0  0  0  0  0  0  0  0  0  0
    3.1657   48.0545   33.2103 C   0  0  0  0  0  0  0  0  0  0  0  0
    6.8892   50.5366   33.2378 O   0  0  0  0  0  0  0  0  0  0  0  0
    7.4519   48.3662   32.9780 O   0  0  0  0  0  0  0  0  0  0  0  0
    1.0026   47.3504   33.3142 C   0  0  0  0  0  0  0  0  0  0  0  0
    2.2188   47.5112   34.0570 O   0  0  0  0  0  0  0  0  0  0  0  0
    8.8124   40.1845   34.2133 O   0  0  0  0  0  0  0  0  0  0  0  0
   11.2405   40.7943   33.3691 O   0  0  0  0  0  0  0  0  0  0  0  0
   10.9150   40.6905   31.9972 C   0  0  0  0  0  0  0  0  0  0  0  0
   11.5252   39.3886   31.4375 C   0  0  0  0  0  0  0  0  0  0  0  0
   12.7499   39.0874   32.0800 O   0  0  0  0  0  0  0  0  0  0  0  0
   10.6092   38.1926   31.6469 C   0  0  0  0  0  0  0  0  0  0  0  0
   12.9332   37.6793   32.0294 C   0  0  0  0  0  0  0  0  0  0  0  0
    9.6122   38.0894   30.6542 O   0  0  0  0  0  0  0  0  0  0  0  0
   11.5743   37.0145   31.7024 C   0  0  0  0  0  0  0  0  0  0  0  0
   13.4844   37.2108   33.3241 N   0  0  0  0  0  0  0  0  0  0  0  0
   11.6298   36.3239   30.4740 O   0  0  0  0  0  0  0  0  0  0  0  0
   14.4802   36.3313   33.5727 C   0  0  0  0  0  0  0  0  0  0  0  0
   13.1138   37.6267   34.5692 C   0  0  0  0  0  0  0  0  0  0  0  0
   15.2075   35.6149   32.6739 N   0  0  0  0  0  0  0  0  0  0  0  0
   14.6761   36.2303   34.9182 C   0  0  0  0  0  0  0  0  0  0  0  0
   13.8220   37.0447   35.5785 N   0  0  0  0  0  0  0  0  0  0  0  0
   16.1643   34.7600   33.1547 C   0  0  0  0  0  0  0  0  0  0  0  0
   15.6529   35.3505   35.4131 C   0  0  0  0  0  0  0  0  0  0  0  0
   16.3798   34.6315   34.5042 N   0  0  0  0  0  0  0  0  0  0  0  0
   15.9002   35.1932   36.8090 N   0  0  0  0  0  0  0  0  0  0  0  0
    8.9983   45.4385   33.6716 H   0  0  0  0  0  0  0  0  0  0  0  0
   10.7739   46.9378   33.0165 H   0  0  0  0  0  0  0  0  0  0  0  0
   11.0488   46.2283   34.4983 H   0  0  0  0  0  0  0  0  0  0  0  0
    9.3643   43.8356   31.4711 H   0  0  0  0  0  0  0  0  0  0  0  0
   10.7410   44.9082   31.1839 H   0  0  0  0  0  0  0  0  0  0  0  0
    7.0125   44.7134   31.5822 H   0  0  0  0  0  0  0  0  0  0  0  0
   10.3476   47.1855   30.3993 H   0  0  0  0  0  0  0  0  0  0  0  0
    5.4622   46.3027   30.4989 H   0  0  0  0  0  0  0  0  0  0  0  0
    8.7901   48.7662   29.3289 H   0  0  0  0  0  0  0  0  0  0  0  0
    4.7593   50.0501   29.2134 H   0  0  0  0  0  0  0  0  0  0  0  0
    7.4045   50.4298   30.6693 H   0  0  0  0  0  0  0  0  0  0  0  0
    6.7442   51.2605   29.2371 H   0  0  0  0  0  0  0  0  0  0  0  0
    5.9857   51.5519   30.8421 H   0  0  0  0  0  0  0  0  0  0  0  0
    2.8829   48.8918   29.9629 H   0  0  0  0  0  0  0  0  0  0  0  0
    4.8936   48.2178   34.4762 H   0  0  0  0  0  0  0  0  0  0  0  0
    0.7160   46.2785   33.2756 H   0  0  0  0  0  0  0  0  0  0  0  0
    0.1928   47.9590   33.7686 H   0  0  0  0  0  0  0  0  0  0  0  0
   11.3800   41.5528   31.4730 H   0  0  0  0  0  0  0  0  0  0  0  0
    9.8241   40.7215   31.7641 H   0  0  0  0  0  0  0  0  0  0  0  0
   11.7266   39.5310   30.3513 H   0  0  0  0  0  0  0  0  0  0  0  0
   10.1110   38.2747   32.6387 H   0  0  0  0  0  0  0  0  0  0  0  0
   13.6652   37.4520   31.2226 H   0  0  0  0  0  0  0  0  0  0  0  0
   10.0511   38.1144   29.7645 H   0  0  0  0  0  0  0  0  0  0  0  0
   11.2762   36.3141   32.5189 H   0  0  0  0  0  0  0  0  0  0  0  0
   10.8594   35.6978   30.4640 H   0  0  0  0  0  0  0  0  0  0  0  0
   12.3295   38.3518   34.7449 H   0  0  0  0  0  0  0  0  0  0  0  0
   16.7564   34.1780   32.4620 H   0  0  0  0  0  0  0  0  0  0  0  0
   15.3534   35.7359   37.5138 H   0  0  0  0  0  0  0  0  0  0  0  0
   16.6348   34.5300   37.1416 H   0  0  0  0  0  0  0  0  0  0  0  0
  1  2  2  0
  1  3  1  0
  3  4  1  0
  4  5  1  0
  6  1  1  0
  7  6  1  0
  6  8  1  0
  8  9  1  0
  9 10  2  0
 11  9  1  0
 10 12  1  0
 13 11  2  0
 12 14  2  0
 14 13  1  0
 14 15  1  0
 15 16  1  0
 16 17  1  0
 16 18  1  0
 18 19  2  0
 20 18  1  0
 19 21  1  0
 22 20  2  0
 20 23  1  0
 21 24  1  0
 21 25  2  0
 25 22  1  0
 23 26  1  0
 23 27  2  0
 24 28  1  0
 25 29  1  0
 28 29  1  0
  4 30  2  0
  4 31  1  0
 32 31  1  0
 32 33  1  0
 33 34  1  0
 33 35  1  0
 34 36  1  0
 35 37  1  0
 35 38  1  0
 38 36  1  0
 36 39  1  0
 38 40  1  0
 41 39  1  0
 42 39  1  0
 43 41  2  0
 41 44  1  0
 45 42  2  0
 46 43  1  0
 44 47  2  0
 44 45  1  0
 48 46  2  0
 48 47  1  0
 47 49  1  0
  6 50  1  1
  7 51  1  0
  7 52  1  0
  8 53  1  0
  8 54  1  0
 10 55  1  0
 11 56  1  0
 12 57  1  0
 13 58  1  0
 16 59  1  6
 17 60  1  0
 17 61  1  0
 17 62  1  0
 19 63  1  0
 22 64  1  0
 28 65  1  0
 28 66  1  0
 32 67  1  0
 32 68  1  0
 33 69  1  0
 35 70  1  0
 36 71  1  0
 37 72  1  0
 38 73  1  0
 40 74  1  0
 42 75  1  0
 46 76  1  0
 49 77  1  0
 49 78  1  0
M  CHG  3   5  -1  23   1  26  -1
M  END
>  <EmbedRMS>  (98) 
0.0817980432471

$$$$

     RDKit          3D

 78 83  0  0  0  0  0  0  0  0999 V2000
   10.2840   43.7625   33.8276 C   0  0  0  0  0  0  0  0  0  0  0  0
   11.4104   43.5863   34.3767 O   0  0  0  0  0  0  0  0  0  0  0  0
    9.3633   42.7234   33.7351 O   0  0  0  0  0  0  0  0  0  0  0  0
    9.8898   41.2247   34.2940 P   0  0  0  0  0  0  0  0  0  0  0  0
   10.3724   41.4544   35.8836 O   0  0  0  0  0  0  0  0  0  0  0  0
    9.9550   45.0699   33.2064 C   0  0  1  0  0  0  0  0  0  0  0  0
   11.0198   46.0481   33.4572 N   0  0  0  0  0  0  0  0  0  0  0  0
    9.7507   44.8511   31.6923 C   0  0  0  0  0  0  0  0  0  0  0  0
    8.7947   45.8420   31.0872 C   0  0  0  0  0  0  0  0  0  0  0  0
    7.4085   45.6009   31.1003 C   0  0  0  0  0  0  0  0  0  0  0  0
    9.2825   46.9889   30.4450 C   0  0  0  0  0  0  0  0  0  0  0  0
    6.5263   46.4998   30.4851 C   0  0  0  0  0  0  0  0  0  0  0  0
    8.4005   47.8870   29.8335 C   0  0  0  0  0  0  0  0  0  0  0  0
    7.0180   47.6564   29.8447 C   0  0  0  0  0  0  0  0  0  0  0  0
    6.1939   48.5968   29.1990 O   0  0  0  0  0  0  0  0  0  0  0  0
    4.7633   48.5866   29.0999 C   0  0  2  0  0  0  0  0  0  0  0  0
    4.1384   48.9198   30.4641 C   0  0  0  0  0  0  0  0  0  0  0  0
    4.2544   47.3220   28.4058 C   0  0  0  0  0  0  0  0  0  0  0  0
    3.1996   46.5538   28.9709 C   0  0  0  0  0  0  0  0  0  0  0  0
    4.8548   46.8726   27.1790 C   0  0  0  0  0  0  0  0  0  0  0  0
    2.8182   45.3776   28.3397 C   0  0  0  0  0  0  0  0  0  0  0  0
    4.4313   45.6578   26.5926 C   0  0  0  0  0  0  0  0  0  0  0  0
    5.8925   47.6241   26.5263 N   0  0  0  0  0  0  0  0  0  0  0  0
    1.8388   44.4796   28.7187 O   0  0  0  0  0  0  0  0  0  0  0  0
    3.4107   44.9462   27.2045 C   0  0  0  0  0  0  0  0  0  0  0  0
    5.7692   48.9835   26.3581 O   0  0  0  0  0  0  0  0  0  0  0  0
    6.8211   47.0282   25.9422 O   0  0  0  0  0  0  0  0  0  0  0  0
    1.8172   43.4162   27.7569 C   0  0  0  0  0  0  0  0  0  0  0  0
    2.8367   43.7541   26.8068 O   0  0  0  0  0  0  0  0  0  0  0  0
    8.8118   40.1831   34.2121 O   0  0  0  0  0  0  0  0  0  0  0  0
   11.2413   40.7933   33.3696 O   0  0  0  0  0  0  0  0  0  0  0  0
   10.9178   40.6902   31.9971 C   0  0  0  0  0  0  0  0  0  0  0  0
   11.5181   39.3813   31.4407 C   0  0  0  0  0  0  0  0  0  0  0  0
   12.7497   39.0870   32.0744 O   0  0  0  0  0  0  0  0  0  0  0  0
   10.6045   38.1891   31.6655 C   0  0  0  0  0  0  0  0  0  0  0  0
   12.9344   37.6801   32.0290 C   0  0  0  0  0  0  0  0  0  0  0  0
    9.6418   38.0758   30.6440 O   0  0  0  0  0  0  0  0  0  0  0  0
   11.5741   37.0169   31.7045 C   0  0  0  0  0  0  0  0  0  0  0  0
   13.4851   37.2125   33.3241 N   0  0  0  0  0  0  0  0  0  0  0  0
   11.6079   36.3406   30.4679 O   0  0  0  0  0  0  0  0  0  0  0  0
   14.4801   36.3321   33.5727 C   0  0  0  0  0  0  0  0  0  0  0  0
   13.1140   37.6277   34.5692 C   0  0  0  0  0  0  0  0  0  0  0  0
   15.2073   35.6155   32.6739 N   0  0  0  0  0  0  0  0  0  0  0  0
   14.6758   36.2306   34.9182 C   0  0  0  0  0  0  0  0  0  0  0  0
   13.8217   37.0451   35.5784 N   0  0  0  0  0  0  0  0  0  0  0  0
   16.1639   34.7602   33.1546 C   0  0  0  0  0  0  0  0  0  0  0  0
   15.6526   35.3506   35.4130 C   0  0  0  0  0  0  0  0  0  0  0  0
   16.3794   34.6316   34.5041 N   0  0  0  0  0  0  0  0  0  0  0  0
   15.9001   35.1933   36.8089 N   0  0  0  0  0  0  0  0  0  0  0  0
    9.0099   45.4347   33.6670 H   0  0  0  0  0  0  0  0  0  0  0  0
   11.1132   46.1992   34.4885 H   0  0  0  0  0  0  0  0  0  0  0  0
   11.9350   45.6934   33.0930 H   0  0  0  0  0  0  0  0  0  0  0  0
    9.3519   43.8345   31.4758 H   0  0  0  0  0  0  0  0  0  0  0  0
   10.7311   44.8931   31.1677 H   0  0  0  0  0  0  0  0  0  0  0  0
    7.0136   44.7146   31.5816 H   0  0  0  0  0  0  0  0  0  0  0  0
   10.3465   47.1891   30.4147 H   0  0  0  0  0  0  0  0  0  0  0  0
    5.4739   46.2726   30.5153 H   0  0  0  0  0  0  0  0  0  0  0  0
    8.7946   48.7674   29.3417 H   0  0  0  0  0  0  0  0  0  0  0  0
    4.4813   49.4358   28.4428 H   0  0  0  0  0  0  0  0  0  0  0  0
    4.2910   48.1054   31.1997 H   0  0  0  0  0  0  0  0  0  0  0  0
    4.6064   49.8419   30.8696 H   0  0  0  0  0  0  0  0  0  0  0  0
    3.0507   49.1151   30.3521 H   0  0  0  0  0  0  0  0  0  0  0  0
    2.6946   46.8365   29.8827 H   0  0  0  0  0  0  0  0  0  0  0  0
    4.8724   45.2909   25.6747 H   0  0  0  0  0  0  0  0  0  0  0  0
    0.8271   43.3707   27.2568 H   0  0  0  0  0  0  0  0  0  0  0  0
    2.0560   42.4495   28.2478 H   0  0  0  0  0  0  0  0  0  0  0  0
   11.3948   41.5458   31.4729 H   0  0  0  0  0  0  0  0  0  0  0  0
    9.8290   40.7386   31.7615 H   0  0  0  0  0  0  0  0  0  0  0  0
   11.6993   39.5070   30.3483 H   0  0  0  0  0  0  0  0  0  0  0  0
   10.1090   38.2634   32.6632 H   0  0  0  0  0  0  0  0  0  0  0  0
   13.6662   37.4514   31.2224 H   0  0  0  0  0  0  0  0  0  0  0  0
    8.9009   38.6925   30.8792 H   0  0  0  0  0  0  0  0  0  0  0  0
   11.2650   36.3082   32.5086 H   0  0  0  0  0  0  0  0  0  0  0  0
   12.1372   35.5140   30.6163 H   0  0  0  0  0  0  0  0  0  0  0  0
   12.3297   38.3530   34.7449 H   0  0  0  0  0  0  0  0  0  0  0  0
   16.7558   34.1781   32.4619 H   0  0  0  0  0  0  0  0  0  0  0  0
   15.3533   35.7360   37.5138 H   0  0  0  0  0  0  0  0  0  0  0  0
   16.6346   34.5300   37.1414 H   0  0  0  0  0  0  0  0  0  0  0  0
  1  2  2  0
  1  3  1  0
  3  4  1  0
  4  5  1  0
  6  1  1  0
  7  6  1  0
  6  8  1  0
  8  9  1  0
  9 10  2  0
 11  9  1  0
 10 12  1  0
 13 11  2  0
 12 14  2  0
 14 13  1  0
 14 15  1  0
 15 16  1  0
 16 17  1  0
 16 18  1  0
 18 19  2  0
 20 18  1  0
 19 21  1  0
 22 20  2  0
 20 23  1  0
 21 24  1  0
 21 25  2  0
 25 22  1  0
 23 26  1  0
 23 27  2  0
 24 28  1  0
 25 29  1  0
 28 29  1  0
  4 30  2  0
  4 31  1  0
 32 31  1  0
 32 33  1  0
 33 34  1  0
 33 35  1  0
 34 36  1  0
 35 37  1  0
 35 38  1  0
 38 36  1  0
 36 39  1  0
 38 40  1  0
 41 39  1  0
 42 39  1  0
 43 41  2  0
 41 44  1  0
 45 42  2  0
 46 43  1  0
 44 47  2  0
 44 45  1  0
 48 46  2  0
 48 47  1  0
 47 49  1  0
  6 50  1  1
  7 51  1  0
  7 52  1  0
  8 53  1  0
  8 54  1  0
 10 55  1  0
 11 56  1  0
 12 57  1  0
 13 58  1  0
 16 59  1  6
 17 60  1  0
 17 61  1  0
 17 62  1  0
 19 63  1  0
 22 64  1  0
 28 65  1  0
 28 66  1  0
 32 67  1  0
 32 68  1  0
 33 69  1  0
 35 70  1  0
 36 71  1  0
 37 72  1  0
 38 73  1  0
 40 74  1  0
 42 75  1  0
 46 76  1  0
 49 77  1  0
 49 78  1  0
M  CHG  3   5  -1  23   1  26  -1
M  END
>  <EmbedRMS>  (99) 
0.0836971278749

$$$$

     RDKit          3D

 78 83  0  0  0  0  0  0  0  0999 V2000
   10.2837   43.7628   33.8275 C   0  0  0  0  0  0  0  0  0  0  0  0
   11.4102   43.5866   34.3767 O   0  0  0  0  0  0  0  0  0  0  0  0
    9.3632   42.7236   33.7352 O   0  0  0  0  0  0  0  0  0  0  0  0
    9.8898   41.2248   34.2940 P   0  0  0  0  0  0  0  0  0  0  0  0
   10.3725   41.4545   35.8836 O   0  0  0  0  0  0  0  0  0  0  0  0
    9.9545   45.0703   33.2066 C   0  0  1  0  0  0  0  0  0  0  0  0
   11.0195   46.0484   33.4573 N   0  0  0  0  0  0  0  0  0  0  0  0
    9.7499   44.8517   31.6925 C   0  0  0  0  0  0  0  0  0  0  0  0
    8.7939   45.8426   31.0873 C   0  0  0  0  0  0  0  0  0  0  0  0
    7.4062   45.5997   31.0992 C   0  0  0  0  0  0  0  0  0  0  0  0
    9.2833   46.9898   30.4422 C   0  0  0  0  0  0  0  0  0  0  0  0
    6.5266   46.4990   30.4811 C   0  0  0  0  0  0  0  0  0  0  0  0
    8.4017   47.8886   29.8293 C   0  0  0  0  0  0  0  0  0  0  0  0
    7.0210   47.6531   29.8564 C   0  0  0  0  0  0  0  0  0  0  0  0
    6.1413   48.5540   29.2491 O   0  0  0  0  0  0  0  0  0  0  0  0
    5.5143   49.6366   29.9448 C   0  0  2  0  0  0  0  0  0  0  0  0
    6.5317   50.7326   30.2931 C   0  0  0  0  0  0  0  0  0  0  0  0
    4.7172   49.1373   31.1462 C   0  0  0  0  0  0  0  0  0  0  0  0
    5.3673   48.9333   32.3917 C   0  0  0  0  0  0  0  0  0  0  0  0
    3.3138   48.8550   31.0413 C   0  0  0  0  0  0  0  0  0  0  0  0
    4.6098   48.5176   33.4780 C   0  0  0  0  0  0  0  0  0  0  0  0
    2.5911   48.4543   32.1888 C   0  0  0  0  0  0  0  0  0  0  0  0
    2.6241   48.9285   29.7830 N   0  0  0  0  0  0  0  0  0  0  0  0
    5.0290   48.2655   34.7702 O   0  0  0  0  0  0  0  0  0  0  0  0
    3.2797   48.2956   33.3831 C   0  0  0  0  0  0  0  0  0  0  0  0
    3.1711   48.3487   28.6615 O   0  0  0  0  0  0  0  0  0  0  0  0
    1.4381   49.3160   29.7427 O   0  0  0  0  0  0  0  0  0  0  0  0
    3.8855   47.8602   35.5349 C   0  0  0  0  0  0  0  0  0  0  0  0
    2.7895   47.8931   34.6106 O   0  0  0  0  0  0  0  0  0  0  0  0
    8.8118   40.1832   34.2121 O   0  0  0  0  0  0  0  0  0  0  0  0
   11.2413   40.7935   33.3696 O   0  0  0  0  0  0  0  0  0  0  0  0
   10.9178   40.6902   31.9971 C   0  0  0  0  0  0  0  0  0  0  0  0
   11.5181   39.3813   31.4408 C   0  0  0  0  0  0  0  0  0  0  0  0
   12.7497   39.0870   32.0745 O   0  0  0  0  0  0  0  0  0  0  0  0
   10.6045   38.1891   31.6655 C   0  0  0  0  0  0  0  0  0  0  0  0
   12.9344   37.6801   32.0290 C   0  0  0  0  0  0  0  0  0  0  0  0
    9.6418   38.0758   30.6440 O   0  0  0  0  0  0  0  0  0  0  0  0
   11.5741   37.0169   31.7044 C   0  0  0  0  0  0  0  0  0  0  0  0
   13.4851   37.2125   33.3241 N   0  0  0  0  0  0  0  0  0  0  0  0
   11.6078   36.3407   30.4679 O   0  0  0  0  0  0  0  0  0  0  0  0
   14.4801   36.3320   33.5727 C   0  0  0  0  0  0  0  0  0  0  0  0
   13.1140   37.6277   34.5693 C   0  0  0  0  0  0  0  0  0  0  0  0
   15.2073   35.6155   32.6739 N   0  0  0  0  0  0  0  0  0  0  0  0
   14.6758   36.2305   34.9182 C   0  0  0  0  0  0  0  0  0  0  0  0
   13.8218   37.0451   35.5784 N   0  0  0  0  0  0  0  0  0  0  0  0
   16.1639   34.7601   33.1546 C   0  0  0  0  0  0  0  0  0  0  0  0
   15.6526   35.3506   35.4130 C   0  0  0  0  0  0  0  0  0  0  0  0
   16.3794   34.6316   34.5041 N   0  0  0  0  0  0  0  0  0  0  0  0
   15.9001   35.1933   36.8089 N   0  0  0  0  0  0  0  0  0  0  0  0
    9.0094   45.4352   33.6673 H   0  0  0  0  0  0  0  0  0  0  0  0
   11.9346   45.6936   33.0931 H   0  0  0  0  0  0  0  0  0  0  0  0
   11.1128   46.1995   34.4886 H   0  0  0  0  0  0  0  0  0  0  0  0
    9.3509   43.8351   31.4761 H   0  0  0  0  0  0  0  0  0  0  0  0
   10.7302   44.8936   31.1677 H   0  0  0  0  0  0  0  0  0  0  0  0
    7.0100   44.7140   31.5801 H   0  0  0  0  0  0  0  0  0  0  0  0
   10.3475   47.1883   30.4103 H   0  0  0  0  0  0  0  0  0  0  0  0
    5.4619   46.3029   30.4937 H   0  0  0  0  0  0  0  0  0  0  0  0
    8.7913   48.7693   29.3350 H   0  0  0  0  0  0  0  0  0  0  0  0
    4.8162   50.1238   29.2331 H   0  0  0  0  0  0  0  0  0  0  0  0
    7.3735   50.3374   30.8962 H   0  0  0  0  0  0  0  0  0  0  0  0
    6.0343   51.5515   30.8554 H   0  0  0  0  0  0  0  0  0  0  0  0
    6.9551   51.1564   29.3577 H   0  0  0  0  0  0  0  0  0  0  0  0
    6.4296   49.0854   32.5187 H   0  0  0  0  0  0  0  0  0  0  0  0
    1.5316   48.2381   32.1411 H   0  0  0  0  0  0  0  0  0  0  0  0
    3.7071   48.5737   36.3665 H   0  0  0  0  0  0  0  0  0  0  0  0
    4.0287   46.8300   35.9230 H   0  0  0  0  0  0  0  0  0  0  0  0
   11.3948   41.5458   31.4728 H   0  0  0  0  0  0  0  0  0  0  0  0
    9.8290   40.7386   31.7614 H   0  0  0  0  0  0  0  0  0  0  0  0
   11.6994   39.5069   30.3483 H   0  0  0  0  0  0  0  0  0  0  0  0
   10.1090   38.2633   32.6632 H   0  0  0  0  0  0  0  0  0  0  0  0
   13.6661   37.4514   31.2224 H   0  0  0  0  0  0  0  0  0  0  0  0
    8.9008   38.6924   30.8793 H   0  0  0  0  0  0  0  0  0  0  0  0
   11.2649   36.3083   32.5086 H   0  0  0  0  0  0  0  0  0  0  0  0
   12.1371   35.5140   30.6162 H   0  0  0  0  0  0  0  0  0  0  0  0
   12.3297   38.3530   34.7450 H   0  0  0  0  0  0  0  0  0  0  0  0
   16.7558   34.1781   32.4618 H   0  0  0  0  0  0  0  0  0  0  0  0
   15.3533   35.7361   37.5137 H   0  0  0  0  0  0  0  0  0  0  0  0
   16.6347   34.5300   37.1414 H   0  0  0  0  0  0  0  0  0  0  0  0
  1  2  2  0
  1  3  1  0
  3  4  1  0
  4  5  1  0
  6  1  1  0
  7  6  1  0
  6  8  1  0
  8  9  1  0
  9 10  2  0
 11  9  1  0
 10 12  1  0
 13 11  2  0
 12 14  2  0
 14 13  1  0
 14 15  1  0
 15 16  1  0
 16 17  1  0
 16 18  1  0
 18 19  2  0
 20 18  1  0
 19 21  1  0
 22 20  2  0
 20 23  1  0
 21 24  1  0
 21 25  2  0
 25 22  1  0
 23 26  1  0
 23 27  2  0
 24 28  1  0
 25 29  1  0
 28 29  1  0
  4 30  2  0
  4 31  1  0
 32 31  1  0
 32 33  1  0
 33 34  1  0
 33 35  1  0
 34 36  1  0
 35 37  1  0
 35 38  1  0
 38 36  1  0
 36 39  1  0
 38 40  1  0
 41 39  1  0
 42 39  1  0
 43 41  2  0
 41 44  1  0
 45 42  2  0
 46 43  1  0
 44 47  2  0
 44 45  1  0
 48 46  2  0
 48 47  1  0
 47 49  1  0
  6 50  1  1
  7 51  1  0
  7 52  1  0
  8 53  1  0
  8 54  1  0
 10 55  1  0
 11 56  1  0
 12 57  1  0
 13 58  1  0
 16 59  1  6
 17 60  1  0
 17 61  1  0
 17 62  1  0
 19 63  1  0
 22 64  1  0
 28 65  1  0
 28 66  1  0
 32 67  1  0
 32 68  1  0
 33 69  1  0
 35 70  1  0
 36 71  1  0
 37 72  1  0
 38 73  1  0
 40 74  1  0
 42 75  1  0
 46 76  1  0
 49 77  1  0
 49 78  1  0
M  CHG  3   5  -1  23   1  26  -1
M  END
>  <EmbedRMS>  (100) 
0.0837929541673

$$$$

     RDKit          3D

 78 83  0  0  0  0  0  0  0  0999 V2000
   10.2806   43.7663   33.8249 C   0  0  0  0  0  0  0  0  0  0  0  0
   11.4112   43.5917   34.3667 O   0  0  0  0  0  0  0  0  0  0  0  0
    9.3621   42.7248   33.7343 O   0  0  0  0  0  0  0  0  0  0  0  0
    9.8903   41.2264   34.2936 P   0  0  0  0  0  0  0  0  0  0  0  0
   10.3732   41.4564   35.8831 O   0  0  0  0  0  0  0  0  0  0  0  0
    9.9461   45.0736   33.2114 C   0  0  1  0  0  0  0  0  0  0  0  0
   11.0268   46.0291   33.4710 N   0  0  0  0  0  0  0  0  0  0  0  0
    9.7539   44.8544   31.6952 C   0  0  0  0  0  0  0  0  0  0  0  0
    8.7957   45.8420   31.0861 C   0  0  0  0  0  0  0  0  0  0  0  0
    7.4094   45.5998   31.1002 C   0  0  0  0  0  0  0  0  0  0  0  0
    9.2822   46.9874   30.4394 C   0  0  0  0  0  0  0  0  0  0  0  0
    6.5267   46.4981   30.4848 C   0  0  0  0  0  0  0  0  0  0  0  0
    8.3995   47.8855   29.8291 C   0  0  0  0  0  0  0  0  0  0  0  0
    7.0170   47.6575   29.8488 C   0  0  0  0  0  0  0  0  0  0  0  0
    6.1850   48.5982   29.2099 O   0  0  0  0  0  0  0  0  0  0  0  0
    4.7601   48.7389   29.3381 C   0  0  2  0  0  0  0  0  0  0  0  0
    4.3587   48.8408   30.8241 C   0  0  0  0  0  0  0  0  0  0  0  0
    3.9743   47.6759   28.5649 C   0  0  0  0  0  0  0  0  0  0  0  0
    4.6619   46.6807   27.8195 C   0  0  0  0  0  0  0  0  0  0  0  0
    2.5357   47.6640   28.5593 C   0  0  0  0  0  0  0  0  0  0  0  0
    3.9253   45.6829   27.1958 C   0  0  0  0  0  0  0  0  0  0  0  0
    1.8417   46.6114   27.9220 C   0  0  0  0  0  0  0  0  0  0  0  0
    1.7669   48.7191   29.1546 N   0  0  0  0  0  0  0  0  0  0  0  0
    4.3865   44.6151   26.4499 O   0  0  0  0  0  0  0  0  0  0  0  0
    2.5760   45.6434   27.2538 C   0  0  0  0  0  0  0  0  0  0  0  0
    0.5953   48.4225   29.8120 O   0  0  0  0  0  0  0  0  0  0  0  0
    2.0124   49.9090   28.8689 O   0  0  0  0  0  0  0  0  0  0  0  0
    3.2505   43.8556   26.0152 C   0  0  0  0  0  0  0  0  0  0  0  0
    2.1142   44.5481   26.5497 O   0  0  0  0  0  0  0  0  0  0  0  0
    8.8127   40.1841   34.2125 O   0  0  0  0  0  0  0  0  0  0  0  0
   11.2416   40.7945   33.3692 O   0  0  0  0  0  0  0  0  0  0  0  0
   10.9177   40.6904   31.9968 C   0  0  0  0  0  0  0  0  0  0  0  0
   11.5180   39.3813   31.4408 C   0  0  0  0  0  0  0  0  0  0  0  0
   12.7497   39.0870   32.0746 O   0  0  0  0  0  0  0  0  0  0  0  0
   10.6045   38.1891   31.6655 C   0  0  0  0  0  0  0  0  0  0  0  0
   12.9344   37.6801   32.0290 C   0  0  0  0  0  0  0  0  0  0  0  0
    9.6418   38.0758   30.6441 O   0  0  0  0  0  0  0  0  0  0  0  0
   11.5741   37.0170   31.7045 C   0  0  0  0  0  0  0  0  0  0  0  0
   13.4851   37.2126   33.3241 N   0  0  0  0  0  0  0  0  0  0  0  0
   11.6079   36.3407   30.4680 O   0  0  0  0  0  0  0  0  0  0  0  0
   14.4801   36.3321   33.5727 C   0  0  0  0  0  0  0  0  0  0  0  0
   13.1140   37.6277   34.5693 C   0  0  0  0  0  0  0  0  0  0  0  0
   15.2073   35.6155   32.6739 N   0  0  0  0  0  0  0  0  0  0  0  0
   14.6758   36.2306   34.9182 C   0  0  0  0  0  0  0  0  0  0  0  0
   13.8217   37.0450   35.5785 N   0  0  0  0  0  0  0  0  0  0  0  0
   16.1639   34.7602   33.1546 C   0  0  0  0  0  0  0  0  0  0  0  0
   15.6526   35.3506   35.4130 C   0  0  0  0  0  0  0  0  0  0  0  0
   16.3794   34.6316   34.5041 N   0  0  0  0  0  0  0  0  0  0  0  0
   15.9001   35.1933   36.8089 N   0  0  0  0  0  0  0  0  0  0  0  0
    8.9997   45.4380   33.6726 H   0  0  0  0  0  0  0  0  0  0  0  0
   10.7765   46.9369   33.0162 H   0  0  0  0  0  0  0  0  0  0  0  0
   11.0505   46.2275   34.4985 H   0  0  0  0  0  0  0  0  0  0  0  0
   10.7410   44.9082   31.1837 H   0  0  0  0  0  0  0  0  0  0  0  0
    9.3643   43.8358   31.4711 H   0  0  0  0  0  0  0  0  0  0  0  0
    7.0160   44.7102   31.5766 H   0  0  0  0  0  0  0  0  0  0  0  0
   10.3462   47.1867   30.4037 H   0  0  0  0  0  0  0  0  0  0  0  0
    5.4749   46.2593   30.4856 H   0  0  0  0  0  0  0  0  0  0  0  0
    8.7925   48.7657   29.3362 H   0  0  0  0  0  0  0  0  0  0  0  0
    4.5187   49.7156   28.8695 H   0  0  0  0  0  0  0  0  0  0  0  0
    4.0891   47.8525   31.2482 H   0  0  0  0  0  0  0  0  0  0  0  0
    3.4887   49.5150   30.9541 H   0  0  0  0  0  0  0  0  0  0  0  0
    5.1915   49.2721   31.4192 H   0  0  0  0  0  0  0  0  0  0  0  0
    5.7373   46.6667   27.7216 H   0  0  0  0  0  0  0  0  0  0  0  0
    0.7600   46.5724   27.9152 H   0  0  0  0  0  0  0  0  0  0  0  0
    3.2983   42.8247   26.4243 H   0  0  0  0  0  0  0  0  0  0  0  0
    3.2017   43.8380   24.9062 H   0  0  0  0  0  0  0  0  0  0  0  0
    9.8288   40.7385   31.7614 H   0  0  0  0  0  0  0  0  0  0  0  0
   11.3944   41.5458   31.4719 H   0  0  0  0  0  0  0  0  0  0  0  0
   11.6994   39.5068   30.3484 H   0  0  0  0  0  0  0  0  0  0  0  0
   10.1090   38.2634   32.6632 H   0  0  0  0  0  0  0  0  0  0  0  0
   13.6662   37.4515   31.2224 H   0  0  0  0  0  0  0  0  0  0  0  0
    8.9009   38.6924   30.8793 H   0  0  0  0  0  0  0  0  0  0  0  0
   11.2650   36.3083   32.5087 H   0  0  0  0  0  0  0  0  0  0  0  0
   12.1372   35.5141   30.6163 H   0  0  0  0  0  0  0  0  0  0  0  0
   12.3297   38.3530   34.7450 H   0  0  0  0  0  0  0  0  0  0  0  0
   16.7558   34.1782   32.4618 H   0  0  0  0  0  0  0  0  0  0  0  0
   16.6346   34.5300   37.1414 H   0  0  0  0  0  0  0  0  0  0  0  0
   15.3533   35.7360   37.5138 H   0  0  0  0  0  0  0  0  0  0  0  0
  1  2  2  0
  1  3  1  0
  3  4  1  0
  4  5  1  0
  6  1  1  0
  7  6  1  0
  6  8  1  0
  8  9  1  0
  9 10  2  0
 11  9  1  0
 10 12  1  0
 13 11  2  0
 12 14  2  0
 14 13  1  0
 14 15  1  0
 15 16  1  0
 16 17  1  0
 16 18  1  0
 18 19  2  0
 20 18  1  0
 19 21  1  0
 22 20  2  0
 20 23  1  0
 21 24  1  0
 21 25  2  0
 25 22  1  0
 23 26  1  0
 23 27  2  0
 24 28  1  0
 25 29  1  0
 28 29  1  0
  4 30  2  0
  4 31  1  0
 32 31  1  0
 32 33  1  0
 33 34  1  0
 33 35  1  0
 34 36  1  0
 35 37  1  0
 35 38  1  0
 38 36  1  0
 36 39  1  0
 38 40  1  0
 41 39  1  0
 42 39  1  0
 43 41  2  0
 41 44  1  0
 45 42  2  0
 46 43  1  0
 44 47  2  0
 44 45  1  0
 48 46  2  0
 48 47  1  0
 47 49  1  0
  6 50  1  1
  7 51  1  0
  7 52  1  0
  8 53  1  0
  8 54  1  0
 10 55  1  0
 11 56  1  0
 12 57  1  0
 13 58  1  0
 16 59  1  6
 17 60  1  0
 17 61  1  0
 17 62  1  0
 19 63  1  0
 22 64  1  0
 28 65  1  0
 28 66  1  0
 32 67  1  0
 32 68  1  0
 33 69  1  0
 35 70  1  0
 36 71  1  0
 37 72  1  0
 38 73  1  0
 40 74  1  0
 42 75  1  0
 46 76  1  0
 49 77  1  0
 49 78  1  0
M  CHG  3   5  -1  23   1  26  -1
M  END
>  <EmbedRMS>  (101) 
0.0826245689906

$$$$

     RDKit          3D

 78 83  0  0  0  0  0  0  0  0999 V2000
   10.2838   43.7626   33.8276 C   0  0  0  0  0  0  0  0  0  0  0  0
   11.4103   43.5863   34.3766 O   0  0  0  0  0  0  0  0  0  0  0  0
    9.3630   42.7236   33.7354 O   0  0  0  0  0  0  0  0  0  0  0  0
    9.8893   41.2249   34.2944 P   0  0  0  0  0  0  0  0  0  0  0  0
   10.3728   41.4546   35.8838 O   0  0  0  0  0  0  0  0  0  0  0  0
    9.9548   45.0699   33.2064 C   0  0  1  0  0  0  0  0  0  0  0  0
   11.0198   46.0480   33.4568 N   0  0  0  0  0  0  0  0  0  0  0  0
    9.7501   44.8508   31.6923 C   0  0  0  0  0  0  0  0  0  0  0  0
    8.7942   45.8418   31.0869 C   0  0  0  0  0  0  0  0  0  0  0  0
    7.4074   45.6012   31.1003 C   0  0  0  0  0  0  0  0  0  0  0  0
    9.2832   46.9891   30.4449 C   0  0  0  0  0  0  0  0  0  0  0  0
    6.5280   46.5022   30.4844 C   0  0  0  0  0  0  0  0  0  0  0  0
    8.4035   47.8900   29.8331 C   0  0  0  0  0  0  0  0  0  0  0  0
    7.0148   47.6513   29.8465 C   0  0  0  0  0  0  0  0  0  0  0  0
    6.0896   48.5179   29.2420 O   0  0  0  0  0  0  0  0  0  0  0  0
    6.4184   49.7019   28.5091 C   0  0  2  0  0  0  0  0  0  0  0  0
    5.1319   50.4706   28.2170 C   0  0  0  0  0  0  0  0  0  0  0  0
    7.1156   49.3604   27.2017 C   0  0  0  0  0  0  0  0  0  0  0  0
    6.6817   48.2229   26.4761 C   0  0  0  0  0  0  0  0  0  0  0  0
    8.1235   50.2083   26.6336 C   0  0  0  0  0  0  0  0  0  0  0  0
    7.2643   47.9591   25.2435 C   0  0  0  0  0  0  0  0  0  0  0  0
    8.6681   49.8988   25.3679 C   0  0  0  0  0  0  0  0  0  0  0  0
    8.5822   51.3902   27.3034 N   0  0  0  0  0  0  0  0  0  0  0  0
    7.0044   46.9155   24.3763 O   0  0  0  0  0  0  0  0  0  0  0  0
    8.2150   48.7618   24.7125 C   0  0  0  0  0  0  0  0  0  0  0  0
    8.7261   52.5576   26.5902 O   0  0  0  0  0  0  0  0  0  0  0  0
    9.1190   51.3018   28.4264 O   0  0  0  0  0  0  0  0  0  0  0  0
    7.8495   47.0733   23.2284 C   0  0  0  0  0  0  0  0  0  0  0  0
    8.6055   48.2650   23.4839 O   0  0  0  0  0  0  0  0  0  0  0  0
    8.8113   40.1833   34.2130 O   0  0  0  0  0  0  0  0  0  0  0  0
   11.2399   40.7932   33.3693 O   0  0  0  0  0  0  0  0  0  0  0  0
   10.9143   40.6896   31.9973 C   0  0  0  0  0  0  0  0  0  0  0  0
   11.5260   39.3884   31.4375 C   0  0  0  0  0  0  0  0  0  0  0  0
   12.7504   39.0887   32.0815 O   0  0  0  0  0  0  0  0  0  0  0  0
   10.6115   38.1909   31.6460 C   0  0  0  0  0  0  0  0  0  0  0  0
   12.9357   37.6812   32.0303 C   0  0  0  0  0  0  0  0  0  0  0  0
    9.6146   38.0858   30.6533 O   0  0  0  0  0  0  0  0  0  0  0  0
   11.5769   37.0148   31.7012 C   0  0  0  0  0  0  0  0  0  0  0  0
   13.4849   37.2112   33.3247 N   0  0  0  0  0  0  0  0  0  0  0  0
   11.6193   36.3260   30.4724 O   0  0  0  0  0  0  0  0  0  0  0  0
   14.4802   36.3313   33.5730 C   0  0  0  0  0  0  0  0  0  0  0  0
   13.1141   37.6268   34.5697 C   0  0  0  0  0  0  0  0  0  0  0  0
   15.2075   35.6151   32.6741 N   0  0  0  0  0  0  0  0  0  0  0  0
   14.6761   36.2301   34.9184 C   0  0  0  0  0  0  0  0  0  0  0  0
   13.8220   37.0445   35.5789 N   0  0  0  0  0  0  0  0  0  0  0  0
   16.1642   34.7600   33.1547 C   0  0  0  0  0  0  0  0  0  0  0  0
   15.6529   35.3503   35.4131 C   0  0  0  0  0  0  0  0  0  0  0  0
   16.3798   34.6314   34.5042 N   0  0  0  0  0  0  0  0  0  0  0  0
   15.9004   35.1930   36.8090 N   0  0  0  0  0  0  0  0  0  0  0  0
    9.0099   45.4349   33.6671 H   0  0  0  0  0  0  0  0  0  0  0  0
   11.1135   46.1992   34.4881 H   0  0  0  0  0  0  0  0  0  0  0  0
   11.9348   45.6932   33.0923 H   0  0  0  0  0  0  0  0  0  0  0  0
    9.3508   43.8343   31.4763 H   0  0  0  0  0  0  0  0  0  0  0  0
   10.7303   44.8922   31.1674 H   0  0  0  0  0  0  0  0  0  0  0  0
    7.0107   44.7161   31.5823 H   0  0  0  0  0  0  0  0  0  0  0  0
   10.3475   47.1881   30.4163 H   0  0  0  0  0  0  0  0  0  0  0  0
    5.4637   46.3045   30.5007 H   0  0  0  0  0  0  0  0  0  0  0  0
    8.8159   48.7638   29.3514 H   0  0  0  0  0  0  0  0  0  0  0  0
    7.0421   50.3476   29.1568 H   0  0  0  0  0  0  0  0  0  0  0  0
    4.4388   49.8536   27.6057 H   0  0  0  0  0  0  0  0  0  0  0  0
    5.3614   51.4102   27.6700 H   0  0  0  0  0  0  0  0  0  0  0  0
    4.6262   50.7328   29.1706 H   0  0  0  0  0  0  0  0  0  0  0  0
    5.9047   47.5706   26.8539 H   0  0  0  0  0  0  0  0  0  0  0  0
    9.4281   50.5228   24.9154 H   0  0  0  0  0  0  0  0  0  0  0  0
    8.5300   46.2017   23.1297 H   0  0  0  0  0  0  0  0  0  0  0  0
    7.2342   47.1987   22.3129 H   0  0  0  0  0  0  0  0  0  0  0  0
    9.8233   40.7192   31.7644 H   0  0  0  0  0  0  0  0  0  0  0  0
   11.3782   41.5525   31.4733 H   0  0  0  0  0  0  0  0  0  0  0  0
   11.7282   39.5312   30.3515 H   0  0  0  0  0  0  0  0  0  0  0  0
   10.1126   38.2732   32.6376 H   0  0  0  0  0  0  0  0  0  0  0  0
   13.6693   37.4565   31.2242 H   0  0  0  0  0  0  0  0  0  0  0  0
   10.0533   38.1118   29.7635 H   0  0  0  0  0  0  0  0  0  0  0  0
   11.2607   36.3147   32.5101 H   0  0  0  0  0  0  0  0  0  0  0  0
   12.1496   35.5022   30.6323 H   0  0  0  0  0  0  0  0  0  0  0  0
   12.3301   38.3524   34.7455 H   0  0  0  0  0  0  0  0  0  0  0  0
   16.7563   34.1781   32.4619 H   0  0  0  0  0  0  0  0  0  0  0  0
   16.6351   34.5298   37.1416 H   0  0  0  0  0  0  0  0  0  0  0  0
   15.3536   35.7357   37.5139 H   0  0  0  0  0  0  0  0  0  0  0  0
  1  2  2  0
  1  3  1  0
  3  4  1  0
  4  5  1  0
  6  1  1  0
  7  6  1  0
  6  8  1  0
  8  9  1  0
  9 10  2  0
 11  9  1  0
 10 12  1  0
 13 11  2  0
 12 14  2  0
 14 13  1  0
 14 15  1  0
 15 16  1  0
 16 17  1  0
 16 18  1  0
 18 19  2  0
 20 18  1  0
 19 21  1  0
 22 20  2  0
 20 23  1  0
 21 24  1  0
 21 25  2  0
 25 22  1  0
 23 26  1  0
 23 27  2  0
 24 28  1  0
 25 29  1  0
 28 29  1  0
  4 30  2  0
  4 31  1  0
 32 31  1  0
 32 33  1  0
 33 34  1  0
 33 35  1  0
 34 36  1  0
 35 37  1  0
 35 38  1  0
 38 36  1  0
 36 39  1  0
 38 40  1  0
 41 39  1  0
 42 39  1  0
 43 41  2  0
 41 44  1  0
 45 42  2  0
 46 43  1  0
 44 47  2  0
 44 45  1  0
 48 46  2  0
 48 47  1  0
 47 49  1  0
  6 50  1  1
  7 51  1  0
  7 52  1  0
  8 53  1  0
  8 54  1  0
 10 55  1  0
 11 56  1  0
 12 57  1  0
 13 58  1  0
 16 59  1  1
 17 60  1  0
 17 61  1  0
 17 62  1  0
 19 63  1  0
 22 64  1  0
 28 65  1  0
 28 66  1  0
 32 67  1  0
 32 68  1  0
 33 69  1  0
 35 70  1  0
 36 71  1  0
 37 72  1  0
 38 73  1  0
 40 74  1  0
 42 75  1  0
 46 76  1  0
 49 77  1  0
 49 78  1  0
M  CHG  3   5  -1  23   1  26  -1
M  END
>  <EmbedRMS>  (102) 
0.0825317599753

$$$$

     RDKit          3D

 78 83  0  0  0  0  0  0  0  0999 V2000
   10.2804   43.7664   33.8249 C   0  0  0  0  0  0  0  0  0  0  0  0
   11.4111   43.5919   34.3667 O   0  0  0  0  0  0  0  0  0  0  0  0
    9.3621   42.7248   33.7343 O   0  0  0  0  0  0  0  0  0  0  0  0
    9.8903   41.2265   34.2936 P   0  0  0  0  0  0  0  0  0  0  0  0
   10.3732   41.4565   35.8831 O   0  0  0  0  0  0  0  0  0  0  0  0
    9.9459   45.0736   33.2112 C   0  0  1  0  0  0  0  0  0  0  0  0
   11.0265   46.0293   33.4710 N   0  0  0  0  0  0  0  0  0  0  0  0
    9.7541   44.8543   31.6949 C   0  0  0  0  0  0  0  0  0  0  0  0
    8.7957   45.8412   31.0849 C   0  0  0  0  0  0  0  0  0  0  0  0
    7.4091   45.5997   31.1008 C   0  0  0  0  0  0  0  0  0  0  0  0
    9.2824   46.9876   30.4390 C   0  0  0  0  0  0  0  0  0  0  0  0
    6.5261   46.4982   30.4858 C   0  0  0  0  0  0  0  0  0  0  0  0
    8.3997   47.8870   29.8302 C   0  0  0  0  0  0  0  0  0  0  0  0
    7.0181   47.6558   29.8484 C   0  0  0  0  0  0  0  0  0  0  0  0
    6.1788   48.5951   29.2270 O   0  0  0  0  0  0  0  0  0  0  0  0
    4.7489   48.5629   29.2418 C   0  0  2  0  0  0  0  0  0  0  0  0
    4.2239   49.6248   28.2770 C   0  0  0  0  0  0  0  0  0  0  0  0
    4.2241   48.8278   30.6428 C   0  0  0  0  0  0  0  0  0  0  0  0
    4.8134   49.8699   31.4001 C   0  0  0  0  0  0  0  0  0  0  0  0
    3.1980   48.0222   31.2379 C   0  0  0  0  0  0  0  0  0  0  0  0
    4.3994   50.0520   32.7128 C   0  0  0  0  0  0  0  0  0  0  0  0
    2.8285   48.2447   32.5845 C   0  0  0  0  0  0  0  0  0  0  0  0
    2.5176   46.9997   30.4936 N   0  0  0  0  0  0  0  0  0  0  0  0
    4.8402   50.9857   33.6308 O   0  0  0  0  0  0  0  0  0  0  0  0
    3.4528   49.2706   33.2816 C   0  0  0  0  0  0  0  0  0  0  0  0
    2.0128   47.2758   29.2441 O   0  0  0  0  0  0  0  0  0  0  0  0
    2.1853   45.9357   31.0558 O   0  0  0  0  0  0  0  0  0  0  0  0
    4.1220   50.7760   34.8544 C   0  0  0  0  0  0  0  0  0  0  0  0
    3.2465   49.6719   34.5874 O   0  0  0  0  0  0  0  0  0  0  0  0
    8.8128   40.1842   34.2125 O   0  0  0  0  0  0  0  0  0  0  0  0
   11.2416   40.7945   33.3692 O   0  0  0  0  0  0  0  0  0  0  0  0
   10.9177   40.6904   31.9968 C   0  0  0  0  0  0  0  0  0  0  0  0
   11.5181   39.3813   31.4408 C   0  0  0  0  0  0  0  0  0  0  0  0
   12.7497   39.0870   32.0746 O   0  0  0  0  0  0  0  0  0  0  0  0
   10.6045   38.1891   31.6655 C   0  0  0  0  0  0  0  0  0  0  0  0
   12.9344   37.6801   32.0290 C   0  0  0  0  0  0  0  0  0  0  0  0
    9.6418   38.0758   30.6441 O   0  0  0  0  0  0  0  0  0  0  0  0
   11.5741   37.0170   31.7045 C   0  0  0  0  0  0  0  0  0  0  0  0
   13.4851   37.2126   33.3241 N   0  0  0  0  0  0  0  0  0  0  0  0
   11.6079   36.3407   30.4680 O   0  0  0  0  0  0  0  0  0  0  0  0
   14.4801   36.3321   33.5727 C   0  0  0  0  0  0  0  0  0  0  0  0
   13.1140   37.6277   34.5693 C   0  0  0  0  0  0  0  0  0  0  0  0
   15.2073   35.6155   32.6739 N   0  0  0  0  0  0  0  0  0  0  0  0
   14.6758   36.2306   34.9182 C   0  0  0  0  0  0  0  0  0  0  0  0
   13.8217   37.0451   35.5785 N   0  0  0  0  0  0  0  0  0  0  0  0
   16.1639   34.7602   33.1546 C   0  0  0  0  0  0  0  0  0  0  0  0
   15.6526   35.3506   35.4130 C   0  0  0  0  0  0  0  0  0  0  0  0
   16.3794   34.6316   34.5041 N   0  0  0  0  0  0  0  0  0  0  0  0
   15.9000   35.1933   36.8089 N   0  0  0  0  0  0  0  0  0  0  0  0
    8.9994   45.4381   33.6721 H   0  0  0  0  0  0  0  0  0  0  0  0
   11.0499   46.2278   34.4984 H   0  0  0  0  0  0  0  0  0  0  0  0
   10.7762   46.9370   33.0161 H   0  0  0  0  0  0  0  0  0  0  0  0
    9.3647   43.8355   31.4710 H   0  0  0  0  0  0  0  0  0  0  0  0
   10.7413   44.9081   31.1837 H   0  0  0  0  0  0  0  0  0  0  0  0
    7.0151   44.7142   31.5843 H   0  0  0  0  0  0  0  0  0  0  0  0
   10.3463   47.1874   30.4045 H   0  0  0  0  0  0  0  0  0  0  0  0
    5.4688   46.2787   30.5122 H   0  0  0  0  0  0  0  0  0  0  0  0
    8.7915   48.7697   29.3408 H   0  0  0  0  0  0  0  0  0  0  0  0
    4.4225   47.5739   28.8597 H   0  0  0  0  0  0  0  0  0  0  0  0
    4.5817   49.4060   27.2486 H   0  0  0  0  0  0  0  0  0  0  0  0
    4.5858   50.6336   28.5700 H   0  0  0  0  0  0  0  0  0  0  0  0
    3.1132   49.6270   28.2706 H   0  0  0  0  0  0  0  0  0  0  0  0
    5.5875   50.5030   30.9851 H   0  0  0  0  0  0  0  0  0  0  0  0
    2.0610   47.6509   33.0640 H   0  0  0  0  0  0  0  0  0  0  0  0
    3.5312   51.6797   35.1126 H   0  0  0  0  0  0  0  0  0  0  0  0
    4.8257   50.5177   35.6733 H   0  0  0  0  0  0  0  0  0  0  0  0
    9.8288   40.7385   31.7615 H   0  0  0  0  0  0  0  0  0  0  0  0
   11.3944   41.5458   31.4719 H   0  0  0  0  0  0  0  0  0  0  0  0
   11.6994   39.5068   30.3484 H   0  0  0  0  0  0  0  0  0  0  0  0
   10.1090   38.2634   32.6632 H   0  0  0  0  0  0  0  0  0  0  0  0
   13.6662   37.4515   31.2224 H   0  0  0  0  0  0  0  0  0  0  0  0
    8.9008   38.6923   30.8794 H   0  0  0  0  0  0  0  0  0  0  0  0
   11.2650   36.3083   32.5087 H   0  0  0  0  0  0  0  0  0  0  0  0
   12.1372   35.5141   30.6163 H   0  0  0  0  0  0  0  0  0  0  0  0
   12.3297   38.3530   34.7450 H   0  0  0  0  0  0  0  0  0  0  0  0
   16.7558   34.1781   32.4619 H   0  0  0  0  0  0  0  0  0  0  0  0
   16.6346   34.5300   37.1414 H   0  0  0  0  0  0  0  0  0  0  0  0
   15.3533   35.7360   37.5138 H   0  0  0  0  0  0  0  0  0  0  0  0
  1  2  2  0
  1  3  1  0
  3  4  1  0
  4  5  1  0
  6  1  1  0
  7  6  1  0
  6  8  1  0
  8  9  1  0
  9 10  2  0
 11  9  1  0
 10 12  1  0
 13 11  2  0
 12 14  2  0
 14 13  1  0
 14 15  1  0
 15 16  1  0
 16 17  1  0
 16 18  1  0
 18 19  2  0
 20 18  1  0
 19 21  1  0
 22 20  2  0
 20 23  1  0
 21 24  1  0
 21 25  2  0
 25 22  1  0
 23 26  1  0
 23 27  2  0
 24 28  1  0
 25 29  1  0
 28 29  1  0
  4 30  2  0
  4 31  1  0
 32 31  1  0
 32 33  1  0
 33 34  1  0
 33 35  1  0
 34 36  1  0
 35 37  1  0
 35 38  1  0
 38 36  1  0
 36 39  1  0
 38 40  1  0
 41 39  1  0
 42 39  1  0
 43 41  2  0
 41 44  1  0
 45 42  2  0
 46 43  1  0
 44 47  2  0
 44 45  1  0
 48 46  2  0
 48 47  1  0
 47 49  1  0
  6 50  1  1
  7 51  1  0
  7 52  1  0
  8 53  1  0
  8 54  1  0
 10 55  1  0
 11 56  1  0
 12 57  1  0
 13 58  1  0
 16 59  1  6
 17 60  1  0
 17 61  1  0
 17 62  1  0
 19 63  1  0
 22 64  1  0
 28 65  1  0
 28 66  1  0
 32 67  1  0
 32 68  1  0
 33 69  1  0
 35 70  1  0
 36 71  1  0
 37 72  1  0
 38 73  1  0
 40 74  1  0
 42 75  1  0
 46 76  1  0
 49 77  1  0
 49 78  1  0
M  CHG  3   5  -1  23   1  26  -1
M  END
>  <EmbedRMS>  (103) 
0.0826504575619

$$$$

     RDKit          3D

 78 83  0  0  0  0  0  0  0  0999 V2000
   10.2840   43.7625   33.8276 C   0  0  0  0  0  0  0  0  0  0  0  0
   11.4104   43.5863   34.3768 O   0  0  0  0  0  0  0  0  0  0  0  0
    9.3634   42.7233   33.7352 O   0  0  0  0  0  0  0  0  0  0  0  0
    9.8899   41.2246   34.2940 P   0  0  0  0  0  0  0  0  0  0  0  0
   10.3724   41.4544   35.8837 O   0  0  0  0  0  0  0  0  0  0  0  0
    9.9548   45.0698   33.2066 C   0  0  1  0  0  0  0  0  0  0  0  0
   11.0198   46.0480   33.4569 N   0  0  0  0  0  0  0  0  0  0  0  0
    9.7500   44.8508   31.6926 C   0  0  0  0  0  0  0  0  0  0  0  0
    8.7941   45.8419   31.0874 C   0  0  0  0  0  0  0  0  0  0  0  0
    7.4076   45.6008   31.0998 C   0  0  0  0  0  0  0  0  0  0  0  0
    9.2830   46.9887   30.4448 C   0  0  0  0  0  0  0  0  0  0  0  0
    6.5284   46.5014   30.4833 C   0  0  0  0  0  0  0  0  0  0  0  0
    8.4039   47.8896   29.8316 C   0  0  0  0  0  0  0  0  0  0  0  0
    7.0139   47.6532   29.8485 C   0  0  0  0  0  0  0  0  0  0  0  0
    6.0830   48.5170   29.2474 O   0  0  0  0  0  0  0  0  0  0  0  0
    6.3724   49.7881   28.6568 C   0  0  2  0  0  0  0  0  0  0  0  0
    6.6468   50.8276   29.7493 C   0  0  0  0  0  0  0  0  0  0  0  0
    5.1868   50.2286   27.8187 C   0  0  0  0  0  0  0  0  0  0  0  0
    3.8835   50.0614   28.3499 C   0  0  0  0  0  0  0  0  0  0  0  0
    5.3403   50.7721   26.4986 C   0  0  0  0  0  0  0  0  0  0  0  0
    2.7945   50.3929   27.5548 C   0  0  0  0  0  0  0  0  0  0  0  0
    4.1932   51.0740   25.7302 C   0  0  0  0  0  0  0  0  0  0  0  0
    6.6334   51.0442   25.9355 N   0  0  0  0  0  0  0  0  0  0  0  0
    1.4498   50.3018   27.8587 O   0  0  0  0  0  0  0  0  0  0  0  0
    2.9426   50.8721   26.2986 C   0  0  0  0  0  0  0  0  0  0  0  0
    6.8408   50.8702   24.5866 O   0  0  0  0  0  0  0  0  0  0  0  0
    7.4916   51.6591   26.6013 O   0  0  0  0  0  0  0  0  0  0  0  0
    0.7070   50.7541   26.7183 C   0  0  0  0  0  0  0  0  0  0  0  0
    1.6990   51.1091   25.7452 O   0  0  0  0  0  0  0  0  0  0  0  0
    8.8119   40.1830   34.2121 O   0  0  0  0  0  0  0  0  0  0  0  0
   11.2416   40.7932   33.3699 O   0  0  0  0  0  0  0  0  0  0  0  0
   10.9187   40.6909   31.9972 C   0  0  0  0  0  0  0  0  0  0  0  0
   11.5172   39.3814   31.4407 C   0  0  0  0  0  0  0  0  0  0  0  0
   12.7493   39.0855   32.0727 O   0  0  0  0  0  0  0  0  0  0  0  0
   10.6023   38.1907   31.6665 C   0  0  0  0  0  0  0  0  0  0  0  0
   12.9319   37.6781   32.0281 C   0  0  0  0  0  0  0  0  0  0  0  0
    9.6392   38.0797   30.6452 O   0  0  0  0  0  0  0  0  0  0  0  0
   11.5715   37.0165   31.7056 C   0  0  0  0  0  0  0  0  0  0  0  0
   13.4847   37.2121   33.3235 N   0  0  0  0  0  0  0  0  0  0  0  0
   11.6187   36.3383   30.4694 O   0  0  0  0  0  0  0  0  0  0  0  0
   14.4801   36.3321   33.5724 C   0  0  0  0  0  0  0  0  0  0  0  0
   13.1137   37.6276   34.5687 C   0  0  0  0  0  0  0  0  0  0  0  0
   15.2073   35.6153   32.6738 N   0  0  0  0  0  0  0  0  0  0  0  0
   14.6759   36.2308   34.9179 C   0  0  0  0  0  0  0  0  0  0  0  0
   13.8216   37.0452   35.5781 N   0  0  0  0  0  0  0  0  0  0  0  0
   16.1640   34.7601   33.1546 C   0  0  0  0  0  0  0  0  0  0  0  0
   15.6526   35.3508   35.4129 C   0  0  0  0  0  0  0  0  0  0  0  0
   16.3794   34.6317   34.5041 N   0  0  0  0  0  0  0  0  0  0  0  0
   15.8999   35.1935   36.8088 N   0  0  0  0  0  0  0  0  0  0  0  0
    9.0099   45.4347   33.6674 H   0  0  0  0  0  0  0  0  0  0  0  0
   11.9348   45.6933   33.0924 H   0  0  0  0  0  0  0  0  0  0  0  0
   11.1135   46.1991   34.4882 H   0  0  0  0  0  0  0  0  0  0  0  0
   10.7303   44.8921   31.1676 H   0  0  0  0  0  0  0  0  0  0  0  0
    9.3507   43.8343   31.4764 H   0  0  0  0  0  0  0  0  0  0  0  0
    7.0110   44.7154   31.5812 H   0  0  0  0  0  0  0  0  0  0  0  0
   10.3476   47.1865   30.4149 H   0  0  0  0  0  0  0  0  0  0  0  0
    5.4642   46.3033   30.5001 H   0  0  0  0  0  0  0  0  0  0  0  0
    8.8221   48.7583   29.3448 H   0  0  0  0  0  0  0  0  0  0  0  0
    7.2660   49.6803   28.0111 H   0  0  0  0  0  0  0  0  0  0  0  0
    5.7811   50.9016   30.4415 H   0  0  0  0  0  0  0  0  0  0  0  0
    7.5425   50.5472   30.3398 H   0  0  0  0  0  0  0  0  0  0  0  0
    6.8301   51.8244   29.2950 H   0  0  0  0  0  0  0  0  0  0  0  0
    3.7238   49.6680   29.3459 H   0  0  0  0  0  0  0  0  0  0  0  0
    4.2753   51.4807   24.7305 H   0  0  0  0  0  0  0  0  0  0  0  0
    0.0969   51.6424   26.9851 H   0  0  0  0  0  0  0  0  0  0  0  0
    0.0643   49.9366   26.3296 H   0  0  0  0  0  0  0  0  0  0  0  0
   11.3972   41.5459   31.4735 H   0  0  0  0  0  0  0  0  0  0  0  0
    9.8300   40.7411   31.7611 H   0  0  0  0  0  0  0  0  0  0  0  0
   11.6974   39.5067   30.3480 H   0  0  0  0  0  0  0  0  0  0  0  0
   10.1077   38.2647   32.6645 H   0  0  0  0  0  0  0  0  0  0  0  0
   13.6621   37.4467   31.2208 H   0  0  0  0  0  0  0  0  0  0  0  0
    8.8974   38.6943   30.8831 H   0  0  0  0  0  0  0  0  0  0  0  0
   11.2806   36.3073   32.5170 H   0  0  0  0  0  0  0  0  0  0  0  0
   10.8493   35.7110   30.4586 H   0  0  0  0  0  0  0  0  0  0  0  0
   12.3291   38.3524   34.7444 H   0  0  0  0  0  0  0  0  0  0  0  0
   16.7559   34.1780   32.4619 H   0  0  0  0  0  0  0  0  0  0  0  0
   16.6344   34.5301   37.1414 H   0  0  0  0  0  0  0  0  0  0  0  0
   15.3532   35.7362   37.5137 H   0  0  0  0  0  0  0  0  0  0  0  0
  1  2  2  0
  1  3  1  0
  3  4  1  0
  4  5  1  0
  6  1  1  0
  7  6  1  0
  6  8  1  0
  8  9  1  0
  9 10  2  0
 11  9  1  0
 10 12  1  0
 13 11  2  0
 12 14  2  0
 14 13  1  0
 14 15  1  0
 15 16  1  0
 16 17  1  0
 16 18  1  0
 18 19  2  0
 20 18  1  0
 19 21  1  0
 22 20  2  0
 20 23  1  0
 21 24  1  0
 21 25  2  0
 25 22  1  0
 23 26  1  0
 23 27  2  0
 24 28  1  0
 25 29  1  0
 28 29  1  0
  4 30  2  0
  4 31  1  0
 32 31  1  0
 32 33  1  0
 33 34  1  0
 33 35  1  0
 34 36  1  0
 35 37  1  0
 35 38  1  0
 38 36  1  0
 36 39  1  0
 38 40  1  0
 41 39  1  0
 42 39  1  0
 43 41  2  0
 41 44  1  0
 45 42  2  0
 46 43  1  0
 44 47  2  0
 44 45  1  0
 48 46  2  0
 48 47  1  0
 47 49  1  0
  6 50  1  1
  7 51  1  0
  7 52  1  0
  8 53  1  0
  8 54  1  0
 10 55  1  0
 11 56  1  0
 12 57  1  0
 13 58  1  0
 16 59  1  6
 17 60  1  0
 17 61  1  0
 17 62  1  0
 19 63  1  0
 22 64  1  0
 28 65  1  0
 28 66  1  0
 32 67  1  0
 32 68  1  0
 33 69  1  0
 35 70  1  0
 36 71  1  0
 37 72  1  0
 38 73  1  0
 40 74  1  0
 42 75  1  0
 46 76  1  0
 49 77  1  0
 49 78  1  0
M  CHG  3   5  -1  23   1  26  -1
M  END
>  <EmbedRMS>  (104) 
0.0838165945524

$$$$

     RDKit          3D

 78 83  0  0  0  0  0  0  0  0999 V2000
   10.2834   43.7661   33.8256 C   0  0  0  0  0  0  0  0  0  0  0  0
   11.4102   43.5930   34.3752 O   0  0  0  0  0  0  0  0  0  0  0  0
    9.3637   42.7255   33.7350 O   0  0  0  0  0  0  0  0  0  0  0  0
    9.8902   41.2267   34.2942 P   0  0  0  0  0  0  0  0  0  0  0  0
   10.3736   41.4560   35.8836 O   0  0  0  0  0  0  0  0  0  0  0  0
    9.9546   45.0694   33.2035 C   0  0  1  0  0  0  0  0  0  0  0  0
   11.0274   46.0321   33.4755 N   0  0  0  0  0  0  0  0  0  0  0  0
    9.7465   44.8480   31.6876 C   0  0  0  0  0  0  0  0  0  0  0  0
    8.7923   45.8408   31.0844 C   0  0  0  0  0  0  0  0  0  0  0  0
    7.4055   45.6017   31.0993 C   0  0  0  0  0  0  0  0  0  0  0  0
    9.2823   46.9879   30.4427 C   0  0  0  0  0  0  0  0  0  0  0  0
    6.5267   46.5034   30.4842 C   0  0  0  0  0  0  0  0  0  0  0  0
    8.4034   47.8904   29.8324 C   0  0  0  0  0  0  0  0  0  0  0  0
    7.0142   47.6520   29.8462 C   0  0  0  0  0  0  0  0  0  0  0  0
    6.0891   48.5164   29.2372 O   0  0  0  0  0  0  0  0  0  0  0  0
    6.4216   49.6938   28.4982 C   0  0  2  0  0  0  0  0  0  0  0  0
    5.1596   50.5136   28.2319 C   0  0  0  0  0  0  0  0  0  0  0  0
    7.1380   49.3768   27.1934 C   0  0  0  0  0  0  0  0  0  0  0  0
    8.0861   50.3220   26.7321 C   0  0  0  0  0  0  0  0  0  0  0  0
    6.9376   48.1648   26.4449 C   0  0  0  0  0  0  0  0  0  0  0  0
    8.8116   50.0338   25.5843 C   0  0  0  0  0  0  0  0  0  0  0  0
    7.7184   47.9215   25.2912 C   0  0  0  0  0  0  0  0  0  0  0  0
    5.9706   47.1767   26.8335 N   0  0  0  0  0  0  0  0  0  0  0  0
    9.7826   50.7988   24.9673 O   0  0  0  0  0  0  0  0  0  0  0  0
    8.6385   48.8827   24.8967 C   0  0  0  0  0  0  0  0  0  0  0  0
    4.6691   47.5396   27.0870 O   0  0  0  0  0  0  0  0  0  0  0  0
    6.2488   45.9635   26.7383 O   0  0  0  0  0  0  0  0  0  0  0  0
   10.2477   50.0794   23.8172 C   0  0  0  0  0  0  0  0  0  0  0  0
    9.4906   48.8614   23.8094 O   0  0  0  0  0  0  0  0  0  0  0  0
    8.8121   40.1850   34.2131 O   0  0  0  0  0  0  0  0  0  0  0  0
   11.2404   40.7941   33.3690 O   0  0  0  0  0  0  0  0  0  0  0  0
   10.9143   40.6898   31.9972 C   0  0  0  0  0  0  0  0  0  0  0  0
   11.5261   39.3885   31.4376 C   0  0  0  0  0  0  0  0  0  0  0  0
   12.7504   39.0888   32.0816 O   0  0  0  0  0  0  0  0  0  0  0  0
   10.6114   38.1910   31.6460 C   0  0  0  0  0  0  0  0  0  0  0  0
   12.9357   37.6812   32.0303 C   0  0  0  0  0  0  0  0  0  0  0  0
    9.6145   38.0859   30.6534 O   0  0  0  0  0  0  0  0  0  0  0  0
   11.5769   37.0148   31.7012 C   0  0  0  0  0  0  0  0  0  0  0  0
   13.4849   37.2112   33.3247 N   0  0  0  0  0  0  0  0  0  0  0  0
   11.6192   36.3261   30.4724 O   0  0  0  0  0  0  0  0  0  0  0  0
   14.4802   36.3313   33.5730 C   0  0  0  0  0  0  0  0  0  0  0  0
   13.1141   37.6268   34.5698 C   0  0  0  0  0  0  0  0  0  0  0  0
   15.2075   35.6151   32.6741 N   0  0  0  0  0  0  0  0  0  0  0  0
   14.6761   36.2301   34.9184 C   0  0  0  0  0  0  0  0  0  0  0  0
   13.8221   37.0445   35.5789 N   0  0  0  0  0  0  0  0  0  0  0  0
   16.1642   34.7600   33.1547 C   0  0  0  0  0  0  0  0  0  0  0  0
   15.6530   35.3503   35.4131 C   0  0  0  0  0  0  0  0  0  0  0  0
   16.3798   34.6314   34.5042 N   0  0  0  0  0  0  0  0  0  0  0  0
   15.9004   35.1930   36.8090 N   0  0  0  0  0  0  0  0  0  0  0  0
    9.0121   45.4317   33.6714 H   0  0  0  0  0  0  0  0  0  0  0  0
   11.8906   45.7658   32.9467 H   0  0  0  0  0  0  0  0  0  0  0  0
   10.7260   46.9687   33.1212 H   0  0  0  0  0  0  0  0  0  0  0  0
    9.3412   43.8329   31.4762 H   0  0  0  0  0  0  0  0  0  0  0  0
   10.7228   44.8813   31.1555 H   0  0  0  0  0  0  0  0  0  0  0  0
    7.0082   44.7166   31.5808 H   0  0  0  0  0  0  0  0  0  0  0  0
   10.3469   47.1849   30.4120 H   0  0  0  0  0  0  0  0  0  0  0  0
    5.4624   46.3057   30.4990 H   0  0  0  0  0  0  0  0  0  0  0  0
    8.8175   48.7642   29.3501 H   0  0  0  0  0  0  0  0  0  0  0  0
    7.0754   50.3253   29.1410 H   0  0  0  0  0  0  0  0  0  0  0  0
    4.4633   49.9786   27.5559 H   0  0  0  0  0  0  0  0  0  0  0  0
    5.4285   51.4852   27.7646 H   0  0  0  0  0  0  0  0  0  0  0  0
    4.6370   50.7197   29.1900 H   0  0  0  0  0  0  0  0  0  0  0  0
    8.2637   51.2493   27.2625 H   0  0  0  0  0  0  0  0  0  0  0  0
    7.5968   47.0165   24.7099 H   0  0  0  0  0  0  0  0  0  0  0  0
   10.0471   50.6612   22.8932 H   0  0  0  0  0  0  0  0  0  0  0  0
   11.3308   49.8566   23.9156 H   0  0  0  0  0  0  0  0  0  0  0  0
    9.8233   40.7191   31.7647 H   0  0  0  0  0  0  0  0  0  0  0  0
   11.3778   41.5526   31.4726 H   0  0  0  0  0  0  0  0  0  0  0  0
   11.7283   39.5312   30.3515 H   0  0  0  0  0  0  0  0  0  0  0  0
   10.1127   38.2734   32.6377 H   0  0  0  0  0  0  0  0  0  0  0  0
   13.6692   37.4566   31.2242 H   0  0  0  0  0  0  0  0  0  0  0  0
   10.0533   38.1118   29.7636 H   0  0  0  0  0  0  0  0  0  0  0  0
   11.2606   36.3148   32.5102 H   0  0  0  0  0  0  0  0  0  0  0  0
   12.1495   35.5023   30.6324 H   0  0  0  0  0  0  0  0  0  0  0  0
   12.3301   38.3524   34.7455 H   0  0  0  0  0  0  0  0  0  0  0  0
   16.7562   34.1781   32.4619 H   0  0  0  0  0  0  0  0  0  0  0  0
   16.6351   34.5299   37.1416 H   0  0  0  0  0  0  0  0  0  0  0  0
   15.3536   35.7357   37.5139 H   0  0  0  0  0  0  0  0  0  0  0  0
  1  2  2  0
  1  3  1  0
  3  4  1  0
  4  5  1  0
  6  1  1  0
  7  6  1  0
  6  8  1  0
  8  9  1  0
  9 10  2  0
 11  9  1  0
 10 12  1  0
 13 11  2  0
 12 14  2  0
 14 13  1  0
 14 15  1  0
 15 16  1  0
 16 17  1  0
 16 18  1  0
 18 19  2  0
 20 18  1  0
 19 21  1  0
 22 20  2  0
 20 23  1  0
 21 24  1  0
 21 25  2  0
 25 22  1  0
 23 26  1  0
 23 27  2  0
 24 28  1  0
 25 29  1  0
 28 29  1  0
  4 30  2  0
  4 31  1  0
 32 31  1  0
 32 33  1  0
 33 34  1  0
 33 35  1  0
 34 36  1  0
 35 37  1  0
 35 38  1  0
 38 36  1  0
 36 39  1  0
 38 40  1  0
 41 39  1  0
 42 39  1  0
 43 41  2  0
 41 44  1  0
 45 42  2  0
 46 43  1  0
 44 47  2  0
 44 45  1  0
 48 46  2  0
 48 47  1  0
 47 49  1  0
  6 50  1  1
  7 51  1  0
  7 52  1  0
  8 53  1  0
  8 54  1  0
 10 55  1  0
 11 56  1  0
 12 57  1  0
 13 58  1  0
 16 59  1  1
 17 60  1  0
 17 61  1  0
 17 62  1  0
 19 63  1  0
 22 64  1  0
 28 65  1  0
 28 66  1  0
 32 67  1  0
 32 68  1  0
 33 69  1  0
 35 70  1  0
 36 71  1  0
 37 72  1  0
 38 73  1  0
 40 74  1  0
 42 75  1  0
 46 76  1  0
 49 77  1  0
 49 78  1  0
M  CHG  3   5  -1  23   1  26  -1
M  END
>  <EmbedRMS>  (105) 
0.0816298277094

$$$$

     RDKit          3D

 78 83  0  0  0  0  0  0  0  0999 V2000
   10.2805   43.7664   33.8249 C   0  0  0  0  0  0  0  0  0  0  0  0
   11.4111   43.5918   34.3667 O   0  0  0  0  0  0  0  0  0  0  0  0
    9.3619   42.7249   33.7344 O   0  0  0  0  0  0  0  0  0  0  0  0
    9.8899   41.2266   34.2940 P   0  0  0  0  0  0  0  0  0  0  0  0
   10.3734   41.4567   35.8833 O   0  0  0  0  0  0  0  0  0  0  0  0
    9.9460   45.0736   33.2112 C   0  0  1  0  0  0  0  0  0  0  0  0
   11.0267   46.0292   33.4709 N   0  0  0  0  0  0  0  0  0  0  0  0
    9.7542   44.8541   31.6949 C   0  0  0  0  0  0  0  0  0  0  0  0
    8.7960   45.8413   31.0850 C   0  0  0  0  0  0  0  0  0  0  0  0
    7.4098   45.6005   31.1010 C   0  0  0  0  0  0  0  0  0  0  0  0
    9.2823   46.9876   30.4401 C   0  0  0  0  0  0  0  0  0  0  0  0
    6.5265   46.4990   30.4864 C   0  0  0  0  0  0  0  0  0  0  0  0
    8.3992   47.8863   29.8314 C   0  0  0  0  0  0  0  0  0  0  0  0
    7.0169   47.6557   29.8452 C   0  0  0  0  0  0  0  0  0  0  0  0
    6.1917   48.5963   29.2014 O   0  0  0  0  0  0  0  0  0  0  0  0
    4.7610   48.5858   29.1028 C   0  0  2  0  0  0  0  0  0  0  0  0
    4.1361   48.9185   30.4670 C   0  0  0  0  0  0  0  0  0  0  0  0
    4.2526   47.3212   28.4078 C   0  0  0  0  0  0  0  0  0  0  0  0
    3.2082   46.5442   28.9801 C   0  0  0  0  0  0  0  0  0  0  0  0
    4.8430   46.8802   27.1721 C   0  0  0  0  0  0  0  0  0  0  0  0
    2.8287   45.3677   28.3487 C   0  0  0  0  0  0  0  0  0  0  0  0
    4.4229   45.6646   26.5869 C   0  0  0  0  0  0  0  0  0  0  0  0
    5.8699   47.6362   26.5075 N   0  0  0  0  0  0  0  0  0  0  0  0
    1.8592   44.4617   28.7342 O   0  0  0  0  0  0  0  0  0  0  0  0
    3.4132   44.9440   27.2065 C   0  0  0  0  0  0  0  0  0  0  0  0
    6.8640   46.9811   25.8179 O   0  0  0  0  0  0  0  0  0  0  0  0
    5.7650   48.8731   26.3795 O   0  0  0  0  0  0  0  0  0  0  0  0
    1.8356   43.4012   27.7693 C   0  0  0  0  0  0  0  0  0  0  0  0
    2.8436   43.7492   26.8106 O   0  0  0  0  0  0  0  0  0  0  0  0
    8.8123   40.1844   34.2133 O   0  0  0  0  0  0  0  0  0  0  0  0
   11.2405   40.7942   33.3692 O   0  0  0  0  0  0  0  0  0  0  0  0
   10.9150   40.6905   31.9972 C   0  0  0  0  0  0  0  0  0  0  0  0
   11.5252   39.3886   31.4375 C   0  0  0  0  0  0  0  0  0  0  0  0
   12.7499   39.0874   32.0799 O   0  0  0  0  0  0  0  0  0  0  0  0
   10.6092   38.1926   31.6470 C   0  0  0  0  0  0  0  0  0  0  0  0
   12.9332   37.6793   32.0294 C   0  0  0  0  0  0  0  0  0  0  0  0
    9.6121   38.0894   30.6542 O   0  0  0  0  0  0  0  0  0  0  0  0
   11.5743   37.0145   31.7024 C   0  0  0  0  0  0  0  0  0  0  0  0
   13.4844   37.2108   33.3241 N   0  0  0  0  0  0  0  0  0  0  0  0
   11.6297   36.3239   30.4740 O   0  0  0  0  0  0  0  0  0  0  0  0
   14.4802   36.3313   33.5727 C   0  0  0  0  0  0  0  0  0  0  0  0
   13.1138   37.6266   34.5692 C   0  0  0  0  0  0  0  0  0  0  0  0
   15.2075   35.6149   32.6739 N   0  0  0  0  0  0  0  0  0  0  0  0
   14.6761   36.2303   34.9181 C   0  0  0  0  0  0  0  0  0  0  0  0
   13.8220   37.0447   35.5785 N   0  0  0  0  0  0  0  0  0  0  0  0
   16.1643   34.7600   33.1547 C   0  0  0  0  0  0  0  0  0  0  0  0
   15.6529   35.3505   35.4130 C   0  0  0  0  0  0  0  0  0  0  0  0
   16.3797   34.6315   34.5042 N   0  0  0  0  0  0  0  0  0  0  0  0
   15.9003   35.1932   36.8090 N   0  0  0  0  0  0  0  0  0  0  0  0
    8.9996   45.4381   33.6721 H   0  0  0  0  0  0  0  0  0  0  0  0
   11.0502   46.2276   34.4983 H   0  0  0  0  0  0  0  0  0  0  0  0
   10.7766   46.9369   33.0160 H   0  0  0  0  0  0  0  0  0  0  0  0
    9.3647   43.8354   31.4710 H   0  0  0  0  0  0  0  0  0  0  0  0
   10.7414   44.9079   31.1836 H   0  0  0  0  0  0  0  0  0  0  0  0
    7.0159   44.7150   31.5847 H   0  0  0  0  0  0  0  0  0  0  0  0
   10.3461   47.1875   30.4051 H   0  0  0  0  0  0  0  0  0  0  0  0
    5.4742   46.2721   30.5193 H   0  0  0  0  0  0  0  0  0  0  0  0
    8.7925   48.7664   29.3386 H   0  0  0  0  0  0  0  0  0  0  0  0
    4.4788   49.4354   28.4459 H   0  0  0  0  0  0  0  0  0  0  0  0
    3.0471   49.1072   30.3561 H   0  0  0  0  0  0  0  0  0  0  0  0
    4.5996   49.8441   30.8697 H   0  0  0  0  0  0  0  0  0  0  0  0
    4.2946   48.1068   31.2044 H   0  0  0  0  0  0  0  0  0  0  0  0
    2.7106   46.8200   29.8982 H   0  0  0  0  0  0  0  0  0  0  0  0
    4.8569   45.3034   25.6635 H   0  0  0  0  0  0  0  0  0  0  0  0
    2.0859   42.4347   28.2547 H   0  0  0  0  0  0  0  0  0  0  0  0
    0.8411   43.3504   27.2786 H   0  0  0  0  0  0  0  0  0  0  0  0
   11.3800   41.5528   31.4730 H   0  0  0  0  0  0  0  0  0  0  0  0
    9.8241   40.7215   31.7640 H   0  0  0  0  0  0  0  0  0  0  0  0
   11.7266   39.5310   30.3512 H   0  0  0  0  0  0  0  0  0  0  0  0
   10.1110   38.2747   32.6387 H   0  0  0  0  0  0  0  0  0  0  0  0
   13.6652   37.4520   31.2226 H   0  0  0  0  0  0  0  0  0  0  0  0
   10.0511   38.1142   29.7645 H   0  0  0  0  0  0  0  0  0  0  0  0
   11.2762   36.3141   32.5189 H   0  0  0  0  0  0  0  0  0  0  0  0
   10.8593   35.6978   30.4640 H   0  0  0  0  0  0  0  0  0  0  0  0
   12.3294   38.3518   34.7449 H   0  0  0  0  0  0  0  0  0  0  0  0
   16.7563   34.1780   32.4620 H   0  0  0  0  0  0  0  0  0  0  0  0
   16.6349   34.5300   37.1415 H   0  0  0  0  0  0  0  0  0  0  0  0
   15.3534   35.7359   37.5138 H   0  0  0  0  0  0  0  0  0  0  0  0
  1  2  2  0
  1  3  1  0
  3  4  1  0
  4  5  1  0
  6  1  1  0
  7  6  1  0
  6  8  1  0
  8  9  1  0
  9 10  2  0
 11  9  1  0
 10 12  1  0
 13 11  2  0
 12 14  2  0
 14 13  1  0
 14 15  1  0
 15 16  1  0
 16 17  1  0
 16 18  1  0
 18 19  2  0
 20 18  1  0
 19 21  1  0
 22 20  2  0
 20 23  1  0
 21 24  1  0
 21 25  2  0
 25 22  1  0
 23 26  1  0
 23 27  2  0
 24 28  1  0
 25 29  1  0
 28 29  1  0
  4 30  2  0
  4 31  1  0
 32 31  1  0
 32 33  1  0
 33 34  1  0
 33 35  1  0
 34 36  1  0
 35 37  1  0
 35 38  1  0
 38 36  1  0
 36 39  1  0
 38 40  1  0
 41 39  1  0
 42 39  1  0
 43 41  2  0
 41 44  1  0
 45 42  2  0
 46 43  1  0
 44 47  2  0
 44 45  1  0
 48 46  2  0
 48 47  1  0
 47 49  1  0
  6 50  1  1
  7 51  1  0
  7 52  1  0
  8 53  1  0
  8 54  1  0
 10 55  1  0
 11 56  1  0
 12 57  1  0
 13 58  1  0
 16 59  1  6
 17 60  1  0
 17 61  1  0
 17 62  1  0
 19 63  1  0
 22 64  1  0
 28 65  1  0
 28 66  1  0
 32 67  1  0
 32 68  1  0
 33 69  1  0
 35 70  1  0
 36 71  1  0
 37 72  1  0
 38 73  1  0
 40 74  1  0
 42 75  1  0
 46 76  1  0
 49 77  1  0
 49 78  1  0
M  CHG  3   5  -1  23   1  26  -1
M  END
>  <EmbedRMS>  (106) 
0.0816215355754

$$$$

     RDKit          3D

 78 83  0  0  0  0  0  0  0  0999 V2000
   10.2838   43.7627   33.8276 C   0  0  0  0  0  0  0  0  0  0  0  0
   11.4102   43.5864   34.3766 O   0  0  0  0  0  0  0  0  0  0  0  0
    9.3630   42.7237   33.7354 O   0  0  0  0  0  0  0  0  0  0  0  0
    9.8893   41.2250   34.2943 P   0  0  0  0  0  0  0  0  0  0  0  0
   10.3727   41.4547   35.8837 O   0  0  0  0  0  0  0  0  0  0  0  0
    9.9548   45.0701   33.2064 C   0  0  1  0  0  0  0  0  0  0  0  0
   11.0196   46.0482   33.4572 N   0  0  0  0  0  0  0  0  0  0  0  0
    9.7506   44.8512   31.6923 C   0  0  0  0  0  0  0  0  0  0  0  0
    8.7944   45.8418   31.0868 C   0  0  0  0  0  0  0  0  0  0  0  0
    7.4077   45.6002   31.1001 C   0  0  0  0  0  0  0  0  0  0  0  0
    9.2827   46.9889   30.4439 C   0  0  0  0  0  0  0  0  0  0  0  0
    6.5258   46.4993   30.4848 C   0  0  0  0  0  0  0  0  0  0  0  0
    8.4010   47.8878   29.8326 C   0  0  0  0  0  0  0  0  0  0  0  0
    7.0195   47.6563   29.8477 C   0  0  0  0  0  0  0  0  0  0  0  0
    6.1813   48.5991   29.2295 O   0  0  0  0  0  0  0  0  0  0  0  0
    4.7530   48.5491   29.2135 C   0  0  2  0  0  0  0  0  0  0  0  0
    4.2080   49.5815   28.2272 C   0  0  0  0  0  0  0  0  0  0  0  0
    4.1498   48.7596   30.5950 C   0  0  0  0  0  0  0  0  0  0  0  0
    2.9313   48.0947   30.8748 C   0  0  0  0  0  0  0  0  0  0  0  0
    4.7694   49.5477   31.6268 C   0  0  0  0  0  0  0  0  0  0  0  0
    2.3882   48.2044   32.1475 C   0  0  0  0  0  0  0  0  0  0  0  0
    4.1750   49.6084   32.9084 C   0  0  0  0  0  0  0  0  0  0  0  0
    5.9870   50.2763   31.4056 N   0  0  0  0  0  0  0  0  0  0  0  0
    1.2265   47.6393   32.6373 O   0  0  0  0  0  0  0  0  0  0  0  0
    2.9858   48.9258   33.1224 C   0  0  0  0  0  0  0  0  0  0  0  0
    6.1043   51.1244   30.3301 O   0  0  0  0  0  0  0  0  0  0  0  0
    6.8623   50.3088   32.2951 O   0  0  0  0  0  0  0  0  0  0  0  0
    1.0873   48.0335   34.0091 C   0  0  0  0  0  0  0  0  0  0  0  0
    2.2321   48.8543   34.2781 O   0  0  0  0  0  0  0  0  0  0  0  0
    8.8113   40.1834   34.2130 O   0  0  0  0  0  0  0  0  0  0  0  0
   11.2399   40.7932   33.3693 O   0  0  0  0  0  0  0  0  0  0  0  0
   10.9143   40.6896   31.9973 C   0  0  0  0  0  0  0  0  0  0  0  0
   11.5261   39.3884   31.4375 C   0  0  0  0  0  0  0  0  0  0  0  0
   12.7504   39.0887   32.0815 O   0  0  0  0  0  0  0  0  0  0  0  0
   10.6115   38.1909   31.6460 C   0  0  0  0  0  0  0  0  0  0  0  0
   12.9357   37.6812   32.0303 C   0  0  0  0  0  0  0  0  0  0  0  0
    9.6146   38.0858   30.6533 O   0  0  0  0  0  0  0  0  0  0  0  0
   11.5769   37.0148   31.7012 C   0  0  0  0  0  0  0  0  0  0  0  0
   13.4849   37.2112   33.3247 N   0  0  0  0  0  0  0  0  0  0  0  0
   11.6193   36.3260   30.4724 O   0  0  0  0  0  0  0  0  0  0  0  0
   14.4802   36.3313   33.5730 C   0  0  0  0  0  0  0  0  0  0  0  0
   13.1141   37.6268   34.5697 C   0  0  0  0  0  0  0  0  0  0  0  0
   15.2075   35.6151   32.6741 N   0  0  0  0  0  0  0  0  0  0  0  0
   14.6761   36.2300   34.9184 C   0  0  0  0  0  0  0  0  0  0  0  0
   13.8220   37.0445   35.5789 N   0  0  0  0  0  0  0  0  0  0  0  0
   16.1642   34.7600   33.1547 C   0  0  0  0  0  0  0  0  0  0  0  0
   15.6529   35.3503   35.4132 C   0  0  0  0  0  0  0  0  0  0  0  0
   16.3798   34.6314   34.5042 N   0  0  0  0  0  0  0  0  0  0  0  0
   15.9004   35.1930   36.8090 N   0  0  0  0  0  0  0  0  0  0  0  0
    9.0097   45.4350   33.6668 H   0  0  0  0  0  0  0  0  0  0  0  0
   11.9348   45.6935   33.0931 H   0  0  0  0  0  0  0  0  0  0  0  0
   11.1129   46.1994   34.4885 H   0  0  0  0  0  0  0  0  0  0  0  0
   10.7310   44.8933   31.1677 H   0  0  0  0  0  0  0  0  0  0  0  0
    9.3520   43.8345   31.4758 H   0  0  0  0  0  0  0  0  0  0  0  0
    7.0127   44.7146   31.5826 H   0  0  0  0  0  0  0  0  0  0  0  0
   10.3467   47.1894   30.4147 H   0  0  0  0  0  0  0  0  0  0  0  0
    5.4674   46.2831   30.5142 H   0  0  0  0  0  0  0  0  0  0  0  0
    8.7933   48.7720   29.3462 H   0  0  0  0  0  0  0  0  0  0  0  0
    4.4520   47.5516   28.8212 H   0  0  0  0  0  0  0  0  0  0  0  0
    4.4216   50.6157   28.5631 H   0  0  0  0  0  0  0  0  0  0  0  0
    3.1080   49.4643   28.1228 H   0  0  0  0  0  0  0  0  0  0  0  0
    4.6718   49.4286   27.2297 H   0  0  0  0  0  0  0  0  0  0  0  0
    2.4292   47.4960   30.1250 H   0  0  0  0  0  0  0  0  0  0  0  0
    4.6197   50.1868   33.7082 H   0  0  0  0  0  0  0  0  0  0  0  0
    0.1546   48.6194   34.1477 H   0  0  0  0  0  0  0  0  0  0  0  0
    1.0932   47.1399   34.6680 H   0  0  0  0  0  0  0  0  0  0  0  0
    9.8233   40.7192   31.7644 H   0  0  0  0  0  0  0  0  0  0  0  0
   11.3782   41.5525   31.4733 H   0  0  0  0  0  0  0  0  0  0  0  0
   11.7283   39.5312   30.3515 H   0  0  0  0  0  0  0  0  0  0  0  0
   10.1127   38.2733   32.6376 H   0  0  0  0  0  0  0  0  0  0  0  0
   13.6693   37.4565   31.2242 H   0  0  0  0  0  0  0  0  0  0  0  0
   10.0533   38.1118   29.7635 H   0  0  0  0  0  0  0  0  0  0  0  0
   11.2607   36.3147   32.5101 H   0  0  0  0  0  0  0  0  0  0  0  0
   12.1496   35.5022   30.6323 H   0  0  0  0  0  0  0  0  0  0  0  0
   12.3301   38.3524   34.7455 H   0  0  0  0  0  0  0  0  0  0  0  0
   16.7563   34.1781   32.4619 H   0  0  0  0  0  0  0  0  0  0  0  0
   15.3536   35.7357   37.5140 H   0  0  0  0  0  0  0  0  0  0  0  0
   16.6351   34.5298   37.1416 H   0  0  0  0  0  0  0  0  0  0  0  0
  1  2  2  0
  1  3  1  0
  3  4  1  0
  4  5  1  0
  6  1  1  0
  7  6  1  0
  6  8  1  0
  8  9  1  0
  9 10  2  0
 11  9  1  0
 10 12  1  0
 13 11  2  0
 12 14  2  0
 14 13  1  0
 14 15  1  0
 15 16  1  0
 16 17  1  0
 16 18  1  0
 18 19  2  0
 20 18  1  0
 19 21  1  0
 22 20  2  0
 20 23  1  0
 21 24  1  0
 21 25  2  0
 25 22  1  0
 23 26  1  0
 23 27  2  0
 24 28  1  0
 25 29  1  0
 28 29  1  0
  4 30  2  0
  4 31  1  0
 32 31  1  0
 32 33  1  0
 33 34  1  0
 33 35  1  0
 34 36  1  0
 35 37  1  0
 35 38  1  0
 38 36  1  0
 36 39  1  0
 38 40  1  0
 41 39  1  0
 42 39  1  0
 43 41  2  0
 41 44  1  0
 45 42  2  0
 46 43  1  0
 44 47  2  0
 44 45  1  0
 48 46  2  0
 48 47  1  0
 47 49  1  0
  6 50  1  1
  7 51  1  0
  7 52  1  0
  8 53  1  0
  8 54  1  0
 10 55  1  0
 11 56  1  0
 12 57  1  0
 13 58  1  0
 16 59  1  6
 17 60  1  0
 17 61  1  0
 17 62  1  0
 19 63  1  0
 22 64  1  0
 28 65  1  0
 28 66  1  0
 32 67  1  0
 32 68  1  0
 33 69  1  0
 35 70  1  0
 36 71  1  0
 37 72  1  0
 38 73  1  0
 40 74  1  0
 42 75  1  0
 46 76  1  0
 49 77  1  0
 49 78  1  0
M  CHG  3   5  -1  23   1  26  -1
M  END
>  <EmbedRMS>  (107) 
0.0825194340968

$$$$

     RDKit          3D

 78 83  0  0  0  0  0  0  0  0999 V2000
   10.2836   43.7629   33.8276 C   0  0  0  0  0  0  0  0  0  0  0  0
   11.4102   43.5865   34.3765 O   0  0  0  0  0  0  0  0  0  0  0  0
    9.3629   42.7237   33.7354 O   0  0  0  0  0  0  0  0  0  0  0  0
    9.8893   41.2250   34.2943 P   0  0  0  0  0  0  0  0  0  0  0  0
   10.3727   41.4547   35.8837 O   0  0  0  0  0  0  0  0  0  0  0  0
    9.9544   45.0703   33.2067 C   0  0  1  0  0  0  0  0  0  0  0  0
   11.0194   46.0484   33.4573 N   0  0  0  0  0  0  0  0  0  0  0  0
    9.7499   44.8517   31.6927 C   0  0  0  0  0  0  0  0  0  0  0  0
    8.7939   45.8427   31.0876 C   0  0  0  0  0  0  0  0  0  0  0  0
    7.4064   45.5997   31.0988 C   0  0  0  0  0  0  0  0  0  0  0  0
    9.2834   46.9891   30.4416 C   0  0  0  0  0  0  0  0  0  0  0  0
    6.5271   46.4989   30.4803 C   0  0  0  0  0  0  0  0  0  0  0  0
    8.4023   47.8880   29.8284 C   0  0  0  0  0  0  0  0  0  0  0  0
    7.0197   47.6544   29.8584 C   0  0  0  0  0  0  0  0  0  0  0  0
    6.1265   48.5470   29.2570 O   0  0  0  0  0  0  0  0  0  0  0  0
    5.7125   49.7983   29.8231 C   0  0  2  0  0  0  0  0  0  0  0  0
    6.8690   50.7998   29.9244 C   0  0  0  0  0  0  0  0  0  0  0  0
    4.9987   49.6026   31.1583 C   0  0  0  0  0  0  0  0  0  0  0  0
    5.7378   49.1445   32.2801 C   0  0  0  0  0  0  0  0  0  0  0  0
    3.5834   49.8027   31.2981 C   0  0  0  0  0  0  0  0  0  0  0  0
    5.0589   48.8642   33.4579 C   0  0  0  0  0  0  0  0  0  0  0  0
    2.9450   49.4863   32.5177 C   0  0  0  0  0  0  0  0  0  0  0  0
    2.7860   50.3368   30.2328 N   0  0  0  0  0  0  0  0  0  0  0  0
    5.5708   48.3963   34.6528 O   0  0  0  0  0  0  0  0  0  0  0  0
    3.7210   49.0221   33.5702 C   0  0  0  0  0  0  0  0  0  0  0  0
    1.5548   49.7847   29.9650 O   0  0  0  0  0  0  0  0  0  0  0  0
    3.0608   51.4565   29.7545 O   0  0  0  0  0  0  0  0  0  0  0  0
    4.4813   48.2524   35.5742 C   0  0  0  0  0  0  0  0  0  0  0  0
    3.3185   48.6636   34.8423 O   0  0  0  0  0  0  0  0  0  0  0  0
    8.8113   40.1834   34.2130 O   0  0  0  0  0  0  0  0  0  0  0  0
   11.2399   40.7933   33.3693 O   0  0  0  0  0  0  0  0  0  0  0  0
   10.9143   40.6896   31.9973 C   0  0  0  0  0  0  0  0  0  0  0  0
   11.5260   39.3884   31.4376 C   0  0  0  0  0  0  0  0  0  0  0  0
   12.7504   39.0887   32.0815 O   0  0  0  0  0  0  0  0  0  0  0  0
   10.6115   38.1909   31.6460 C   0  0  0  0  0  0  0  0  0  0  0  0
   12.9357   37.6812   32.0303 C   0  0  0  0  0  0  0  0  0  0  0  0
    9.6145   38.0858   30.6533 O   0  0  0  0  0  0  0  0  0  0  0  0
   11.5769   37.0148   31.7012 C   0  0  0  0  0  0  0  0  0  0  0  0
   13.4849   37.2112   33.3247 N   0  0  0  0  0  0  0  0  0  0  0  0
   11.6193   36.3260   30.4724 O   0  0  0  0  0  0  0  0  0  0  0  0
   14.4802   36.3313   33.5730 C   0  0  0  0  0  0  0  0  0  0  0  0
   13.1141   37.6268   34.5697 C   0  0  0  0  0  0  0  0  0  0  0  0
   15.2075   35.6151   32.6741 N   0  0  0  0  0  0  0  0  0  0  0  0
   14.6761   36.2300   34.9184 C   0  0  0  0  0  0  0  0  0  0  0  0
   13.8220   37.0445   35.5789 N   0  0  0  0  0  0  0  0  0  0  0  0
   16.1643   34.7600   33.1547 C   0  0  0  0  0  0  0  0  0  0  0  0
   15.6529   35.3503   35.4131 C   0  0  0  0  0  0  0  0  0  0  0  0
   16.3798   34.6314   34.5042 N   0  0  0  0  0  0  0  0  0  0  0  0
   15.9004   35.1930   36.8090 N   0  0  0  0  0  0  0  0  0  0  0  0
    9.0094   45.4353   33.6674 H   0  0  0  0  0  0  0  0  0  0  0  0
   11.9345   45.6936   33.0931 H   0  0  0  0  0  0  0  0  0  0  0  0
   11.1127   46.1997   34.4886 H   0  0  0  0  0  0  0  0  0  0  0  0
   10.7302   44.8934   31.1679 H   0  0  0  0  0  0  0  0  0  0  0  0
    9.3508   43.8352   31.4762 H   0  0  0  0  0  0  0  0  0  0  0  0
    7.0100   44.7143   31.5803 H   0  0  0  0  0  0  0  0  0  0  0  0
   10.3480   47.1851   30.4060 H   0  0  0  0  0  0  0  0  0  0  0  0
    5.4619   46.3065   30.4977 H   0  0  0  0  0  0  0  0  0  0  0  0
    8.7980   48.7571   29.3202 H   0  0  0  0  0  0  0  0  0  0  0  0
    5.0158   50.2304   29.0817 H   0  0  0  0  0  0  0  0  0  0  0  0
    7.6376   50.4708   30.6522 H   0  0  0  0  0  0  0  0  0  0  0  0
    6.4814   51.7895   30.2472 H   0  0  0  0  0  0  0  0  0  0  0  0
    7.3494   50.9192   28.9302 H   0  0  0  0  0  0  0  0  0  0  0  0
    6.8064   48.9861   32.2374 H   0  0  0  0  0  0  0  0  0  0  0  0
    1.8787   49.6216   32.6460 H   0  0  0  0  0  0  0  0  0  0  0  0
    4.3815   47.1922   35.8882 H   0  0  0  0  0  0  0  0  0  0  0  0
    4.6331   48.9118   36.4544 H   0  0  0  0  0  0  0  0  0  0  0  0
   11.3782   41.5525   31.4732 H   0  0  0  0  0  0  0  0  0  0  0  0
    9.8233   40.7192   31.7644 H   0  0  0  0  0  0  0  0  0  0  0  0
   11.7282   39.5312   30.3515 H   0  0  0  0  0  0  0  0  0  0  0  0
   10.1127   38.2733   32.6376 H   0  0  0  0  0  0  0  0  0  0  0  0
   13.6692   37.4565   31.2242 H   0  0  0  0  0  0  0  0  0  0  0  0
   10.0533   38.1117   29.7635 H   0  0  0  0  0  0  0  0  0  0  0  0
   11.2607   36.3147   32.5101 H   0  0  0  0  0  0  0  0  0  0  0  0
   12.1496   35.5023   30.6324 H   0  0  0  0  0  0  0  0  0  0  0  0
   12.3301   38.3524   34.7455 H   0  0  0  0  0  0  0  0  0  0  0  0
   16.7563   34.1781   32.4619 H   0  0  0  0  0  0  0  0  0  0  0  0
   15.3536   35.7356   37.5140 H   0  0  0  0  0  0  0  0  0  0  0  0
   16.6351   34.5298   37.1415 H   0  0  0  0  0  0  0  0  0  0  0  0
  1  2  2  0
  1  3  1  0
  3  4  1  0
  4  5  1  0
  6  1  1  0
  7  6  1  0
  6  8  1  0
  8  9  1  0
  9 10  2  0
 11  9  1  0
 10 12  1  0
 13 11  2  0
 12 14  2  0
 14 13  1  0
 14 15  1  0
 15 16  1  0
 16 17  1  0
 16 18  1  0
 18 19  2  0
 20 18  1  0
 19 21  1  0
 22 20  2  0
 20 23  1  0
 21 24  1  0
 21 25  2  0
 25 22  1  0
 23 26  1  0
 23 27  2  0
 24 28  1  0
 25 29  1  0
 28 29  1  0
  4 30  2  0
  4 31  1  0
 32 31  1  0
 32 33  1  0
 33 34  1  0
 33 35  1  0
 34 36  1  0
 35 37  1  0
 35 38  1  0
 38 36  1  0
 36 39  1  0
 38 40  1  0
 41 39  1  0
 42 39  1  0
 43 41  2  0
 41 44  1  0
 45 42  2  0
 46 43  1  0
 44 47  2  0
 44 45  1  0
 48 46  2  0
 48 47  1  0
 47 49  1  0
  6 50  1  1
  7 51  1  0
  7 52  1  0
  8 53  1  0
  8 54  1  0
 10 55  1  0
 11 56  1  0
 12 57  1  0
 13 58  1  0
 16 59  1  6
 17 60  1  0
 17 61  1  0
 17 62  1  0
 19 63  1  0
 22 64  1  0
 28 65  1  0
 28 66  1  0
 32 67  1  0
 32 68  1  0
 33 69  1  0
 35 70  1  0
 36 71  1  0
 37 72  1  0
 38 73  1  0
 40 74  1  0
 42 75  1  0
 46 76  1  0
 49 77  1  0
 49 78  1  0
M  CHG  3   5  -1  23   1  26  -1
M  END
>  <EmbedRMS>  (108) 
0.0826086689889

$$$$

     RDKit          3D

 78 83  0  0  0  0  0  0  0  0999 V2000
   10.2832   43.7664   33.8256 C   0  0  0  0  0  0  0  0  0  0  0  0
   11.4100   43.5932   34.3751 O   0  0  0  0  0  0  0  0  0  0  0  0
    9.3634   42.7258   33.7351 O   0  0  0  0  0  0  0  0  0  0  0  0
    9.8899   41.2271   34.2947 P   0  0  0  0  0  0  0  0  0  0  0  0
   10.3732   41.4564   35.8841 O   0  0  0  0  0  0  0  0  0  0  0  0
    9.9543   45.0699   33.2037 C   0  0  1  0  0  0  0  0  0  0  0  0
   11.0269   46.0326   33.4759 N   0  0  0  0  0  0  0  0  0  0  0  0
    9.7465   44.8488   31.6877 C   0  0  0  0  0  0  0  0  0  0  0  0
    8.7920   45.8415   31.0846 C   0  0  0  0  0  0  0  0  0  0  0  0
    7.4043   45.6002   31.0982 C   0  0  0  0  0  0  0  0  0  0  0  0
    9.2825   46.9883   30.4396 C   0  0  0  0  0  0  0  0  0  0  0  0
    6.5253   46.5005   30.4812 C   0  0  0  0  0  0  0  0  0  0  0  0
    8.4013   47.8886   29.8284 C   0  0  0  0  0  0  0  0  0  0  0  0
    7.0204   47.6544   29.8567 C   0  0  0  0  0  0  0  0  0  0  0  0
    6.1413   48.5574   29.2517 O   0  0  0  0  0  0  0  0  0  0  0  0
    5.5123   49.6355   29.9525 C   0  0  2  0  0  0  0  0  0  0  0  0
    6.5286   50.7317   30.3043 C   0  0  0  0  0  0  0  0  0  0  0  0
    4.7156   49.1279   31.1510 C   0  0  0  0  0  0  0  0  0  0  0  0
    5.3596   48.9436   32.4029 C   0  0  0  0  0  0  0  0  0  0  0  0
    3.3189   48.8131   31.0363 C   0  0  0  0  0  0  0  0  0  0  0  0
    4.6017   48.5189   33.4855 C   0  0  0  0  0  0  0  0  0  0  0  0
    2.5955   48.4062   32.1801 C   0  0  0  0  0  0  0  0  0  0  0  0
    2.6323   48.8653   29.7753 N   0  0  0  0  0  0  0  0  0  0  0  0
    5.0151   48.2834   34.7826 O   0  0  0  0  0  0  0  0  0  0  0  0
    3.2771   48.2693   33.3810 C   0  0  0  0  0  0  0  0  0  0  0  0
    1.3076   49.2345   29.7326 O   0  0  0  0  0  0  0  0  0  0  0  0
    3.1490   48.3611   28.7569 O   0  0  0  0  0  0  0  0  0  0  0  0
    3.8737   47.8599   35.5405 C   0  0  0  0  0  0  0  0  0  0  0  0
    2.7850   47.8647   34.6069 O   0  0  0  0  0  0  0  0  0  0  0  0
    8.8120   40.1851   34.2133 O   0  0  0  0  0  0  0  0  0  0  0  0
   11.2402   40.7948   33.3700 O   0  0  0  0  0  0  0  0  0  0  0  0
   10.9144   40.6914   31.9982 C   0  0  0  0  0  0  0  0  0  0  0  0
   11.5270   39.3912   31.4386 C   0  0  0  0  0  0  0  0  0  0  0  0
   12.7520   39.0911   32.0836 O   0  0  0  0  0  0  0  0  0  0  0  0
   10.6113   38.1932   31.6451 C   0  0  0  0  0  0  0  0  0  0  0  0
   12.9413   37.6838   32.0297 C   0  0  0  0  0  0  0  0  0  0  0  0
    9.6064   38.0878   30.6599 O   0  0  0  0  0  0  0  0  0  0  0  0
   11.5822   37.0198   31.6877 C   0  0  0  0  0  0  0  0  0  0  0  0
   13.4840   37.2105   33.3254 N   0  0  0  0  0  0  0  0  0  0  0  0
   11.6179   36.3072   30.4691 O   0  0  0  0  0  0  0  0  0  0  0  0
   14.4797   36.3309   33.5738 C   0  0  0  0  0  0  0  0  0  0  0  0
   13.1136   37.6269   34.5702 C   0  0  0  0  0  0  0  0  0  0  0  0
   15.2074   35.6152   32.6747 N   0  0  0  0  0  0  0  0  0  0  0  0
   14.6756   36.2298   34.9190 C   0  0  0  0  0  0  0  0  0  0  0  0
   13.8217   37.0446   35.5793 N   0  0  0  0  0  0  0  0  0  0  0  0
   16.1643   34.7603   33.1551 C   0  0  0  0  0  0  0  0  0  0  0  0
   15.6528   35.3503   35.4136 C   0  0  0  0  0  0  0  0  0  0  0  0
   16.3798   34.6316   34.5046 N   0  0  0  0  0  0  0  0  0  0  0  0
   15.9004   35.1930   36.8094 N   0  0  0  0  0  0  0  0  0  0  0  0
    9.0115   45.4321   33.6714 H   0  0  0  0  0  0  0  0  0  0  0  0
   10.7253   46.9692   33.1217 H   0  0  0  0  0  0  0  0  0  0  0  0
   11.8902   45.7664   32.9473 H   0  0  0  0  0  0  0  0  0  0  0  0
   10.7229   44.8826   31.1558 H   0  0  0  0  0  0  0  0  0  0  0  0
    9.3416   43.8336   31.4761 H   0  0  0  0  0  0  0  0  0  0  0  0
    7.0075   44.7148   31.5792 H   0  0  0  0  0  0  0  0  0  0  0  0
   10.3469   47.1851   30.4057 H   0  0  0  0  0  0  0  0  0  0  0  0
    5.4605   46.3056   30.4950 H   0  0  0  0  0  0  0  0  0  0  0  0
    8.7913   48.7691   29.3342 H   0  0  0  0  0  0  0  0  0  0  0  0
    4.8127   50.1257   29.2442 H   0  0  0  0  0  0  0  0  0  0  0  0
    6.0318   51.5452   30.8750 H   0  0  0  0  0  0  0  0  0  0  0  0
    7.3745   50.3340   30.9001 H   0  0  0  0  0  0  0  0  0  0  0  0
    6.9464   51.1635   29.3701 H   0  0  0  0  0  0  0  0  0  0  0  0
    6.4173   49.1177   32.5383 H   0  0  0  0  0  0  0  0  0  0  0  0
    1.5412   48.1678   32.1254 H   0  0  0  0  0  0  0  0  0  0  0  0
    4.0343   46.8353   35.9364 H   0  0  0  0  0  0  0  0  0  0  0  0
    3.6738   48.5750   36.3659 H   0  0  0  0  0  0  0  0  0  0  0  0
    9.8234   40.7201   31.7654 H   0  0  0  0  0  0  0  0  0  0  0  0
   11.3776   41.5549   31.4744 H   0  0  0  0  0  0  0  0  0  0  0  0
   11.7311   39.5363   30.3532 H   0  0  0  0  0  0  0  0  0  0  0  0
   10.1202   38.2696   32.6410 H   0  0  0  0  0  0  0  0  0  0  0  0
   13.6850   37.4639   31.2321 H   0  0  0  0  0  0  0  0  0  0  0  0
   10.0251   38.1793   29.7654 H   0  0  0  0  0  0  0  0  0  0  0  0
   11.2757   36.3135   32.4908 H   0  0  0  0  0  0  0  0  0  0  0  0
   11.9838   36.9111   29.7708 H   0  0  0  0  0  0  0  0  0  0  0  0
   12.3307   38.3537   34.7458 H   0  0  0  0  0  0  0  0  0  0  0  0
   16.7566   34.1786   32.4623 H   0  0  0  0  0  0  0  0  0  0  0  0
   15.3535   35.7355   37.5144 H   0  0  0  0  0  0  0  0  0  0  0  0
   16.6353   34.5301   37.1419 H   0  0  0  0  0  0  0  0  0  0  0  0
  1  2  2  0
  1  3  1  0
  3  4  1  0
  4  5  1  0
  6  1  1  0
  7  6  1  0
  6  8  1  0
  8  9  1  0
  9 10  2  0
 11  9  1  0
 10 12  1  0
 13 11  2  0
 12 14  2  0
 14 13  1  0
 14 15  1  0
 15 16  1  0
 16 17  1  0
 16 18  1  0
 18 19  2  0
 20 18  1  0
 19 21  1  0
 22 20  2  0
 20 23  1  0
 21 24  1  0
 21 25  2  0
 25 22  1  0
 23 26  1  0
 23 27  2  0
 24 28  1  0
 25 29  1  0
 28 29  1  0
  4 30  2  0
  4 31  1  0
 32 31  1  0
 32 33  1  0
 33 34  1  0
 33 35  1  0
 34 36  1  0
 35 37  1  0
 35 38  1  0
 38 36  1  0
 36 39  1  0
 38 40  1  0
 41 39  1  0
 42 39  1  0
 43 41  2  0
 41 44  1  0
 45 42  2  0
 46 43  1  0
 44 47  2  0
 44 45  1  0
 48 46  2  0
 48 47  1  0
 47 49  1  0
  6 50  1  1
  7 51  1  0
  7 52  1  0
  8 53  1  0
  8 54  1  0
 10 55  1  0
 11 56  1  0
 12 57  1  0
 13 58  1  0
 16 59  1  6
 17 60  1  0
 17 61  1  0
 17 62  1  0
 19 63  1  0
 22 64  1  0
 28 65  1  0
 28 66  1  0
 32 67  1  0
 32 68  1  0
 33 69  1  0
 35 70  1  0
 36 71  1  0
 37 72  1  0
 38 73  1  0
 40 74  1  0
 42 75  1  0
 46 76  1  0
 49 77  1  0
 49 78  1  0
M  CHG  3   5  -1  23   1  26  -1
M  END
>  <EmbedRMS>  (109) 
0.0809288016203

$$$$

     RDKit          3D

 78 83  0  0  0  0  0  0  0  0999 V2000
   10.2839   43.7627   33.8276 C   0  0  0  0  0  0  0  0  0  0  0  0
   11.4103   43.5864   34.3766 O   0  0  0  0  0  0  0  0  0  0  0  0
    9.3631   42.7236   33.7355 O   0  0  0  0  0  0  0  0  0  0  0  0
    9.8895   41.2250   34.2948 P   0  0  0  0  0  0  0  0  0  0  0  0
   10.3720   41.4547   35.8844 O   0  0  0  0  0  0  0  0  0  0  0  0
    9.9549   45.0700   33.2063 C   0  0  1  0  0  0  0  0  0  0  0  0
   11.0198   46.0481   33.4570 N   0  0  0  0  0  0  0  0  0  0  0  0
    9.7506   44.8509   31.6921 C   0  0  0  0  0  0  0  0  0  0  0  0
    8.7945   45.8415   31.0864 C   0  0  0  0  0  0  0  0  0  0  0  0
    7.4078   45.6008   31.1004 C   0  0  0  0  0  0  0  0  0  0  0  0
    9.2827   46.9890   30.4449 C   0  0  0  0  0  0  0  0  0  0  0  0
    6.5253   46.5005   30.4862 C   0  0  0  0  0  0  0  0  0  0  0  0
    8.4009   47.8884   29.8345 C   0  0  0  0  0  0  0  0  0  0  0  0
    7.0191   47.6553   29.8439 C   0  0  0  0  0  0  0  0  0  0  0  0
    6.1879   48.5977   29.2158 O   0  0  0  0  0  0  0  0  0  0  0  0
    4.7834   48.4663   28.9912 C   0  0  2  0  0  0  0  0  0  0  0  0
    4.4916   47.4287   27.8985 C   0  0  0  0  0  0  0  0  0  0  0  0
    4.1942   49.8226   28.6360 C   0  0  0  0  0  0  0  0  0  0  0  0
    3.1925   50.3541   29.4870 C   0  0  0  0  0  0  0  0  0  0  0  0
    4.5743   50.5626   27.4632 C   0  0  0  0  0  0  0  0  0  0  0  0
    2.6007   51.5635   29.1476 C   0  0  0  0  0  0  0  0  0  0  0  0
    3.9249   51.7814   27.1627 C   0  0  0  0  0  0  0  0  0  0  0  0
    5.5924   50.0968   26.5667 N   0  0  0  0  0  0  0  0  0  0  0  0
    1.6123   52.2548   29.8216 O   0  0  0  0  0  0  0  0  0  0  0  0
    2.9491   52.2453   28.0333 C   0  0  0  0  0  0  0  0  0  0  0  0
    6.8732   49.8950   27.0230 O   0  0  0  0  0  0  0  0  0  0  0  0
    5.3911   50.1270   25.3351 O   0  0  0  0  0  0  0  0  0  0  0  0
    1.3235   53.4483   29.0807 C   0  0  0  0  0  0  0  0  0  0  0  0
    2.1995   53.4026   27.9461 O   0  0  0  0  0  0  0  0  0  0  0  0
    8.8116   40.1832   34.2125 O   0  0  0  0  0  0  0  0  0  0  0  0
   11.2411   40.7938   33.3710 O   0  0  0  0  0  0  0  0  0  0  0  0
   10.9179   40.6919   31.9985 C   0  0  0  0  0  0  0  0  0  0  0  0
   11.5175   39.3836   31.4423 C   0  0  0  0  0  0  0  0  0  0  0  0
   12.7508   39.0886   32.0752 O   0  0  0  0  0  0  0  0  0  0  0  0
   10.6028   38.1915   31.6658 C   0  0  0  0  0  0  0  0  0  0  0  0
   12.9385   37.6818   32.0278 C   0  0  0  0  0  0  0  0  0  0  0  0
    9.6372   38.0804   30.6470 O   0  0  0  0  0  0  0  0  0  0  0  0
   11.5780   37.0214   31.6935 C   0  0  0  0  0  0  0  0  0  0  0  0
   13.4844   37.2119   33.3242 N   0  0  0  0  0  0  0  0  0  0  0  0
   11.6095   36.3200   30.4679 O   0  0  0  0  0  0  0  0  0  0  0  0
   14.4797   36.3318   33.5730 C   0  0  0  0  0  0  0  0  0  0  0  0
   13.1135   37.6277   34.5691 C   0  0  0  0  0  0  0  0  0  0  0  0
   15.2073   35.6155   32.6742 N   0  0  0  0  0  0  0  0  0  0  0  0
   14.6755   36.2305   34.9184 C   0  0  0  0  0  0  0  0  0  0  0  0
   13.8213   37.0452   35.5785 N   0  0  0  0  0  0  0  0  0  0  0  0
   16.1641   34.7604   33.1549 C   0  0  0  0  0  0  0  0  0  0  0  0
   15.6525   35.3507   35.4132 C   0  0  0  0  0  0  0  0  0  0  0  0
   16.3795   34.6318   34.5044 N   0  0  0  0  0  0  0  0  0  0  0  0
   15.9000   35.1934   36.8091 N   0  0  0  0  0  0  0  0  0  0  0  0
    9.0098   45.4348   33.6668 H   0  0  0  0  0  0  0  0  0  0  0  0
   11.9349   45.6934   33.0928 H   0  0  0  0  0  0  0  0  0  0  0  0
   11.1132   46.1992   34.4883 H   0  0  0  0  0  0  0  0  0  0  0  0
   10.7310   44.8928   31.1675 H   0  0  0  0  0  0  0  0  0  0  0  0
    9.3519   43.8343   31.4758 H   0  0  0  0  0  0  0  0  0  0  0  0
    7.0127   44.7165   31.5854 H   0  0  0  0  0  0  0  0  0  0  0  0
   10.3467   47.1894   30.4157 H   0  0  0  0  0  0  0  0  0  0  0  0
    5.4680   46.2856   30.5275 H   0  0  0  0  0  0  0  0  0  0  0  0
    8.7944   48.7710   29.3461 H   0  0  0  0  0  0  0  0  0  0  0  0
    4.3057   48.1092   29.9291 H   0  0  0  0  0  0  0  0  0  0  0  0
    5.0809   47.6292   26.9818 H   0  0  0  0  0  0  0  0  0  0  0  0
    3.4101   47.4341   27.6442 H   0  0  0  0  0  0  0  0  0  0  0  0
    4.7543   46.4109   28.2515 H   0  0  0  0  0  0  0  0  0  0  0  0
    2.8718   49.8365   30.3823 H   0  0  0  0  0  0  0  0  0  0  0  0
    4.1868   52.3557   26.2832 H   0  0  0  0  0  0  0  0  0  0  0  0
    1.5415   54.3455   29.6972 H   0  0  0  0  0  0  0  0  0  0  0  0
    0.2645   53.4467   28.7475 H   0  0  0  0  0  0  0  0  0  0  0  0
    9.8292   40.7408   31.7625 H   0  0  0  0  0  0  0  0  0  0  0  0
   11.3954   41.5476   31.4750 H   0  0  0  0  0  0  0  0  0  0  0  0
   11.6981   39.5115   30.3500 H   0  0  0  0  0  0  0  0  0  0  0  0
   10.1118   38.2602   32.6660 H   0  0  0  0  0  0  0  0  0  0  0  0
   13.6767   37.4556   31.2267 H   0  0  0  0  0  0  0  0  0  0  0  0
    8.8961   38.6950   30.8871 H   0  0  0  0  0  0  0  0  0  0  0  0
   11.2792   36.3072   32.4923 H   0  0  0  0  0  0  0  0  0  0  0  0
   11.8828   36.9597   29.7589 H   0  0  0  0  0  0  0  0  0  0  0  0
   12.3300   38.3539   34.7447 H   0  0  0  0  0  0  0  0  0  0  0  0
   16.7562   34.1785   32.4622 H   0  0  0  0  0  0  0  0  0  0  0  0
   15.3531   35.7361   37.5140 H   0  0  0  0  0  0  0  0  0  0  0  0
   16.6347   34.5303   37.1417 H   0  0  0  0  0  0  0  0  0  0  0  0
  1  2  2  0
  1  3  1  0
  3  4  1  0
  4  5  1  0
  6  1  1  0
  7  6  1  0
  6  8  1  0
  8  9  1  0
  9 10  2  0
 11  9  1  0
 10 12  1  0
 13 11  2  0
 12 14  2  0
 14 13  1  0
 14 15  1  0
 15 16  1  0
 16 17  1  0
 16 18  1  0
 18 19  2  0
 20 18  1  0
 19 21  1  0
 22 20  2  0
 20 23  1  0
 21 24  1  0
 21 25  2  0
 25 22  1  0
 23 26  1  0
 23 27  2  0
 24 28  1  0
 25 29  1  0
 28 29  1  0
  4 30  2  0
  4 31  1  0
 32 31  1  0
 32 33  1  0
 33 34  1  0
 33 35  1  0
 34 36  1  0
 35 37  1  0
 35 38  1  0
 38 36  1  0
 36 39  1  0
 38 40  1  0
 41 39  1  0
 42 39  1  0
 43 41  2  0
 41 44  1  0
 45 42  2  0
 46 43  1  0
 44 47  2  0
 44 45  1  0
 48 46  2  0
 48 47  1  0
 47 49  1  0
  6 50  1  1
  7 51  1  0
  7 52  1  0
  8 53  1  0
  8 54  1  0
 10 55  1  0
 11 56  1  0
 12 57  1  0
 13 58  1  0
 16 59  1  1
 17 60  1  0
 17 61  1  0
 17 62  1  0
 19 63  1  0
 22 64  1  0
 28 65  1  0
 28 66  1  0
 32 67  1  0
 32 68  1  0
 33 69  1  0
 35 70  1  0
 36 71  1  0
 37 72  1  0
 38 73  1  0
 40 74  1  0
 42 75  1  0
 46 76  1  0
 49 77  1  0
 49 78  1  0
M  CHG  3   5  -1  23   1  26  -1
M  END
>  <EmbedRMS>  (110) 
0.0828714814647

$$$$

     RDKit          3D

 78 83  0  0  0  0  0  0  0  0999 V2000
   10.2803   43.7665   33.8251 C   0  0  0  0  0  0  0  0  0  0  0  0
   11.4110   43.5920   34.3667 O   0  0  0  0  0  0  0  0  0  0  0  0
    9.3619   42.7249   33.7347 O   0  0  0  0  0  0  0  0  0  0  0  0
    9.8900   41.2267   34.2944 P   0  0  0  0  0  0  0  0  0  0  0  0
   10.3728   41.4567   35.8839 O   0  0  0  0  0  0  0  0  0  0  0  0
    9.9458   45.0736   33.2110 C   0  0  1  0  0  0  0  0  0  0  0  0
   11.0264   46.0293   33.4705 N   0  0  0  0  0  0  0  0  0  0  0  0
    9.7538   44.8534   31.6947 C   0  0  0  0  0  0  0  0  0  0  0  0
    8.7958   45.8399   31.0835 C   0  0  0  0  0  0  0  0  0  0  0  0
    7.4091   45.6006   31.1010 C   0  0  0  0  0  0  0  0  0  0  0  0
    9.2827   46.9876   30.4408 C   0  0  0  0  0  0  0  0  0  0  0  0
    6.5288   46.5024   30.4874 C   0  0  0  0  0  0  0  0  0  0  0  0
    8.4022   47.8895   29.8325 C   0  0  0  0  0  0  0  0  0  0  0  0
    7.0130   47.6504   29.8445 C   0  0  0  0  0  0  0  0  0  0  0  0
    6.0746   48.5203   29.2547 O   0  0  0  0  0  0  0  0  0  0  0  0
    6.3297   49.5824   28.3202 C   0  0  2  0  0  0  0  0  0  0  0  0
    7.1411   49.0584   27.1175 C   0  0  0  0  0  0  0  0  0  0  0  0
    6.9362   50.8288   28.9712 C   0  0  0  0  0  0  0  0  0  0  0  0
    7.1759   50.8580   30.3716 C   0  0  0  0  0  0  0  0  0  0  0  0
    7.2608   51.9957   28.1963 C   0  0  0  0  0  0  0  0  0  0  0  0
    7.7982   51.9704   30.9215 C   0  0  0  0  0  0  0  0  0  0  0  0
    7.9092   53.0919   28.8096 C   0  0  0  0  0  0  0  0  0  0  0  0
    6.9045   52.1030   26.8105 N   0  0  0  0  0  0  0  0  0  0  0  0
    8.1454   52.1949   32.2399 O   0  0  0  0  0  0  0  0  0  0  0  0
    8.1589   53.0353   30.1723 C   0  0  0  0  0  0  0  0  0  0  0  0
    5.6098   51.8611   26.4139 O   0  0  0  0  0  0  0  0  0  0  0  0
    7.6914   52.6412   26.0045 O   0  0  0  0  0  0  0  0  0  0  0  0
    8.7675   53.4844   32.3202 C   0  0  0  0  0  0  0  0  0  0  0  0
    8.7544   53.9873   30.9773 O   0  0  0  0  0  0  0  0  0  0  0  0
    8.8127   40.1842   34.2128 O   0  0  0  0  0  0  0  0  0  0  0  0
   11.2414   40.7951   33.3705 O   0  0  0  0  0  0  0  0  0  0  0  0
   10.9178   40.6921   31.9983 C   0  0  0  0  0  0  0  0  0  0  0  0
   11.5175   39.3837   31.4423 C   0  0  0  0  0  0  0  0  0  0  0  0
   12.7507   39.0887   32.0753 O   0  0  0  0  0  0  0  0  0  0  0  0
   10.6027   38.1916   31.6659 C   0  0  0  0  0  0  0  0  0  0  0  0
   12.9384   37.6819   32.0278 C   0  0  0  0  0  0  0  0  0  0  0  0
    9.6371   38.0805   30.6470 O   0  0  0  0  0  0  0  0  0  0  0  0
   11.5780   37.0215   31.6935 C   0  0  0  0  0  0  0  0  0  0  0  0
   13.4844   37.2119   33.3242 N   0  0  0  0  0  0  0  0  0  0  0  0
   11.6095   36.3201   30.4679 O   0  0  0  0  0  0  0  0  0  0  0  0
   14.4797   36.3318   33.5730 C   0  0  0  0  0  0  0  0  0  0  0  0
   13.1136   37.6278   34.5691 C   0  0  0  0  0  0  0  0  0  0  0  0
   15.2073   35.6155   32.6742 N   0  0  0  0  0  0  0  0  0  0  0  0
   14.6754   36.2305   34.9184 C   0  0  0  0  0  0  0  0  0  0  0  0
   13.8213   37.0452   35.5785 N   0  0  0  0  0  0  0  0  0  0  0  0
   16.1640   34.7604   33.1549 C   0  0  0  0  0  0  0  0  0  0  0  0
   15.6525   35.3507   35.4132 C   0  0  0  0  0  0  0  0  0  0  0  0
   16.3794   34.6318   34.5043 N   0  0  0  0  0  0  0  0  0  0  0  0
   15.9000   35.1934   36.8091 N   0  0  0  0  0  0  0  0  0  0  0  0
    8.9993   45.4382   33.6717 H   0  0  0  0  0  0  0  0  0  0  0  0
   11.0502   46.2277   34.4979 H   0  0  0  0  0  0  0  0  0  0  0  0
   10.7758   46.9370   33.0158 H   0  0  0  0  0  0  0  0  0  0  0  0
   10.7410   44.9068   31.1834 H   0  0  0  0  0  0  0  0  0  0  0  0
    9.3643   43.8346   31.4714 H   0  0  0  0  0  0  0  0  0  0  0  0
    7.0132   44.7171   31.5864 H   0  0  0  0  0  0  0  0  0  0  0  0
   10.3462   47.1909   30.4156 H   0  0  0  0  0  0  0  0  0  0  0  0
    5.4644   46.3062   30.5099 H   0  0  0  0  0  0  0  0  0  0  0  0
    8.8153   48.7790   29.3838 H   0  0  0  0  0  0  0  0  0  0  0  0
    5.3328   49.8796   27.9340 H   0  0  0  0  0  0  0  0  0  0  0  0
    6.9423   47.9770   26.9605 H   0  0  0  0  0  0  0  0  0  0  0  0
    8.2310   49.2058   27.2580 H   0  0  0  0  0  0  0  0  0  0  0  0
    6.8448   49.5778   26.1841 H   0  0  0  0  0  0  0  0  0  0  0  0
    6.8959   50.0461   31.0264 H   0  0  0  0  0  0  0  0  0  0  0  0
    8.1749   53.9769   28.2457 H   0  0  0  0  0  0  0  0  0  0  0  0
    8.1816   54.1528   32.9854 H   0  0  0  0  0  0  0  0  0  0  0  0
    9.8123   53.3850   32.6820 H   0  0  0  0  0  0  0  0  0  0  0  0
    9.8290   40.7408   31.7625 H   0  0  0  0  0  0  0  0  0  0  0  0
   11.3949   41.5477   31.4741 H   0  0  0  0  0  0  0  0  0  0  0  0
   11.6982   39.5114   30.3500 H   0  0  0  0  0  0  0  0  0  0  0  0
   10.1117   38.2604   32.6660 H   0  0  0  0  0  0  0  0  0  0  0  0
   13.6767   37.4557   31.2267 H   0  0  0  0  0  0  0  0  0  0  0  0
    8.8960   38.6950   30.8873 H   0  0  0  0  0  0  0  0  0  0  0  0
   11.2791   36.3072   32.4923 H   0  0  0  0  0  0  0  0  0  0  0  0
   11.8828   36.9598   29.7589 H   0  0  0  0  0  0  0  0  0  0  0  0
   12.3300   38.3539   34.7446 H   0  0  0  0  0  0  0  0  0  0  0  0
   16.7561   34.1785   32.4621 H   0  0  0  0  0  0  0  0  0  0  0  0
   16.6347   34.5303   37.1416 H   0  0  0  0  0  0  0  0  0  0  0  0
   15.3531   35.7360   37.5140 H   0  0  0  0  0  0  0  0  0  0  0  0
  1  2  2  0
  1  3  1  0
  3  4  1  0
  4  5  1  0
  6  1  1  0
  7  6  1  0
  6  8  1  0
  8  9  1  0
  9 10  2  0
 11  9  1  0
 10 12  1  0
 13 11  2  0
 12 14  2  0
 14 13  1  0
 14 15  1  0
 15 16  1  0
 16 17  1  0
 16 18  1  0
 18 19  2  0
 20 18  1  0
 19 21  1  0
 22 20  2  0
 20 23  1  0
 21 24  1  0
 21 25  2  0
 25 22  1  0
 23 26  1  0
 23 27  2  0
 24 28  1  0
 25 29  1  0
 28 29  1  0
  4 30  2  0
  4 31  1  0
 32 31  1  0
 32 33  1  0
 33 34  1  0
 33 35  1  0
 34 36  1  0
 35 37  1  0
 35 38  1  0
 38 36  1  0
 36 39  1  0
 38 40  1  0
 41 39  1  0
 42 39  1  0
 43 41  2  0
 41 44  1  0
 45 42  2  0
 46 43  1  0
 44 47  2  0
 44 45  1  0
 48 46  2  0
 48 47  1  0
 47 49  1  0
  6 50  1  1
  7 51  1  0
  7 52  1  0
  8 53  1  0
  8 54  1  0
 10 55  1  0
 11 56  1  0
 12 57  1  0
 13 58  1  0
 16 59  1  6
 17 60  1  0
 17 61  1  0
 17 62  1  0
 19 63  1  0
 22 64  1  0
 28 65  1  0
 28 66  1  0
 32 67  1  0
 32 68  1  0
 33 69  1  0
 35 70  1  0
 36 71  1  0
 37 72  1  0
 38 73  1  0
 40 74  1  0
 42 75  1  0
 46 76  1  0
 49 77  1  0
 49 78  1  0
M  CHG  3   5  -1  23   1  26  -1
M  END
>  <EmbedRMS>  (111) 
0.0818212247808

$$$$

     RDKit          3D

 78 83  0  0  0  0  0  0  0  0999 V2000
   10.2802   43.7666   33.8250 C   0  0  0  0  0  0  0  0  0  0  0  0
   11.4109   43.5921   34.3666 O   0  0  0  0  0  0  0  0  0  0  0  0
    9.3618   42.7250   33.7345 O   0  0  0  0  0  0  0  0  0  0  0  0
    9.8899   41.2267   34.2940 P   0  0  0  0  0  0  0  0  0  0  0  0
   10.3734   41.4567   35.8833 O   0  0  0  0  0  0  0  0  0  0  0  0
    9.9454   45.0739   33.2114 C   0  0  1  0  0  0  0  0  0  0  0  0
   11.0260   46.0296   33.4709 N   0  0  0  0  0  0  0  0  0  0  0  0
    9.7533   44.8546   31.6952 C   0  0  0  0  0  0  0  0  0  0  0  0
    8.7952   45.8420   31.0854 C   0  0  0  0  0  0  0  0  0  0  0  0
    7.4077   45.5991   31.0994 C   0  0  0  0  0  0  0  0  0  0  0  0
    9.2832   46.9877   30.4367 C   0  0  0  0  0  0  0  0  0  0  0  0
    6.5273   46.4981   30.4816 C   0  0  0  0  0  0  0  0  0  0  0  0
    8.4011   47.8872   29.8262 C   0  0  0  0  0  0  0  0  0  0  0  0
    7.0187   47.6539   29.8591 C   0  0  0  0  0  0  0  0  0  0  0  0
    6.1241   48.5471   29.2609 O   0  0  0  0  0  0  0  0  0  0  0  0
    5.7143   49.7994   29.8279 C   0  0  2  0  0  0  0  0  0  0  0  0
    6.8717   50.8006   29.9204 C   0  0  0  0  0  0  0  0  0  0  0  0
    5.0089   49.6063   31.1675 C   0  0  0  0  0  0  0  0  0  0  0  0
    5.7531   49.1481   32.2858 C   0  0  0  0  0  0  0  0  0  0  0  0
    3.5957   49.8101   31.3140 C   0  0  0  0  0  0  0  0  0  0  0  0
    5.0802   48.8723   33.4681 C   0  0  0  0  0  0  0  0  0  0  0  0
    2.9629   49.5000   32.5390 C   0  0  0  0  0  0  0  0  0  0  0  0
    2.7997   50.3499   30.2503 N   0  0  0  0  0  0  0  0  0  0  0  0
    5.5974   48.4054   34.6611 O   0  0  0  0  0  0  0  0  0  0  0  0
    3.7435   49.0352   33.5879 C   0  0  0  0  0  0  0  0  0  0  0  0
    3.1099   51.5841   29.7274 O   0  0  0  0  0  0  0  0  0  0  0  0
    1.6867   49.8474   29.9917 O   0  0  0  0  0  0  0  0  0  0  0  0
    4.5130   48.2675   35.5893 C   0  0  0  0  0  0  0  0  0  0  0  0
    3.3473   48.6812   34.8633 O   0  0  0  0  0  0  0  0  0  0  0  0
    8.8124   40.1845   34.2133 O   0  0  0  0  0  0  0  0  0  0  0  0
   11.2405   40.7943   33.3691 O   0  0  0  0  0  0  0  0  0  0  0  0
   10.9150   40.6905   31.9972 C   0  0  0  0  0  0  0  0  0  0  0  0
   11.5252   39.3886   31.4375 C   0  0  0  0  0  0  0  0  0  0  0  0
   12.7499   39.0874   32.0799 O   0  0  0  0  0  0  0  0  0  0  0  0
   10.6092   38.1926   31.6470 C   0  0  0  0  0  0  0  0  0  0  0  0
   12.9332   37.6793   32.0294 C   0  0  0  0  0  0  0  0  0  0  0  0
    9.6122   38.0894   30.6542 O   0  0  0  0  0  0  0  0  0  0  0  0
   11.5743   37.0145   31.7024 C   0  0  0  0  0  0  0  0  0  0  0  0
   13.4844   37.2108   33.3241 N   0  0  0  0  0  0  0  0  0  0  0  0
   11.6298   36.3239   30.4740 O   0  0  0  0  0  0  0  0  0  0  0  0
   14.4802   36.3313   33.5727 C   0  0  0  0  0  0  0  0  0  0  0  0
   13.1139   37.6267   34.5693 C   0  0  0  0  0  0  0  0  0  0  0  0
   15.2075   35.6149   32.6739 N   0  0  0  0  0  0  0  0  0  0  0  0
   14.6761   36.2303   34.9182 C   0  0  0  0  0  0  0  0  0  0  0  0
   13.8220   37.0447   35.5785 N   0  0  0  0  0  0  0  0  0  0  0  0
   16.1643   34.7600   33.1547 C   0  0  0  0  0  0  0  0  0  0  0  0
   15.6529   35.3505   35.4130 C   0  0  0  0  0  0  0  0  0  0  0  0
   16.3798   34.6315   34.5042 N   0  0  0  0  0  0  0  0  0  0  0  0
   15.9003   35.1932   36.8090 N   0  0  0  0  0  0  0  0  0  0  0  0
    8.9989   45.4384   33.6725 H   0  0  0  0  0  0  0  0  0  0  0  0
   10.7755   46.9372   33.0159 H   0  0  0  0  0  0  0  0  0  0  0  0
   11.0495   46.2283   34.4983 H   0  0  0  0  0  0  0  0  0  0  0  0
    9.3634   43.8360   31.4715 H   0  0  0  0  0  0  0  0  0  0  0  0
   10.7404   44.9080   31.1839 H   0  0  0  0  0  0  0  0  0  0  0  0
    7.0122   44.7146   31.5832 H   0  0  0  0  0  0  0  0  0  0  0  0
   10.3476   47.1833   30.3965 H   0  0  0  0  0  0  0  0  0  0  0  0
    5.4621   46.3059   30.5013 H   0  0  0  0  0  0  0  0  0  0  0  0
    8.7961   48.7560   29.3169 H   0  0  0  0  0  0  0  0  0  0  0  0
    5.0120   50.2305   29.0909 H   0  0  0  0  0  0  0  0  0  0  0  0
    6.4861   51.7915   30.2422 H   0  0  0  0  0  0  0  0  0  0  0  0
    7.3472   50.9169   28.9235 H   0  0  0  0  0  0  0  0  0  0  0  0
    7.6436   50.4734   30.6456 H   0  0  0  0  0  0  0  0  0  0  0  0
    6.8211   48.9870   32.2373 H   0  0  0  0  0  0  0  0  0  0  0  0
    1.8979   49.6402   32.6734 H   0  0  0  0  0  0  0  0  0  0  0  0
    4.4112   47.2085   35.9063 H   0  0  0  0  0  0  0  0  0  0  0  0
    4.6724   48.9284   36.4669 H   0  0  0  0  0  0  0  0  0  0  0  0
    9.8241   40.7215   31.7641 H   0  0  0  0  0  0  0  0  0  0  0  0
   11.3800   41.5528   31.4730 H   0  0  0  0  0  0  0  0  0  0  0  0
   11.7266   39.5310   30.3513 H   0  0  0  0  0  0  0  0  0  0  0  0
   10.1110   38.2747   32.6387 H   0  0  0  0  0  0  0  0  0  0  0  0
   13.6652   37.4520   31.2226 H   0  0  0  0  0  0  0  0  0  0  0  0
   10.0511   38.1143   29.7645 H   0  0  0  0  0  0  0  0  0  0  0  0
   11.2762   36.3141   32.5189 H   0  0  0  0  0  0  0  0  0  0  0  0
   10.8593   35.6978   30.4640 H   0  0  0  0  0  0  0  0  0  0  0  0
   12.3295   38.3518   34.7450 H   0  0  0  0  0  0  0  0  0  0  0  0
   16.7564   34.1780   32.4620 H   0  0  0  0  0  0  0  0  0  0  0  0
   16.6349   34.5300   37.1415 H   0  0  0  0  0  0  0  0  0  0  0  0
   15.3534   35.7359   37.5138 H   0  0  0  0  0  0  0  0  0  0  0  0
  1  2  2  0
  1  3  1  0
  3  4  1  0
  4  5  1  0
  6  1  1  0
  7  6  1  0
  6  8  1  0
  8  9  1  0
  9 10  2  0
 11  9  1  0
 10 12  1  0
 13 11  2  0
 12 14  2  0
 14 13  1  0
 14 15  1  0
 15 16  1  0
 16 17  1  0
 16 18  1  0
 18 19  2  0
 20 18  1  0
 19 21  1  0
 22 20  2  0
 20 23  1  0
 21 24  1  0
 21 25  2  0
 25 22  1  0
 23 26  1  0
 23 27  2  0
 24 28  1  0
 25 29  1  0
 28 29  1  0
  4 30  2  0
  4 31  1  0
 32 31  1  0
 32 33  1  0
 33 34  1  0
 33 35  1  0
 34 36  1  0
 35 37  1  0
 35 38  1  0
 38 36  1  0
 36 39  1  0
 38 40  1  0
 41 39  1  0
 42 39  1  0
 43 41  2  0
 41 44  1  0
 45 42  2  0
 46 43  1  0
 44 47  2  0
 44 45  1  0
 48 46  2  0
 48 47  1  0
 47 49  1  0
  6 50  1  1
  7 51  1  0
  7 52  1  0
  8 53  1  0
  8 54  1  0
 10 55  1  0
 11 56  1  0
 12 57  1  0
 13 58  1  0
 16 59  1  6
 17 60  1  0
 17 61  1  0
 17 62  1  0
 19 63  1  0
 22 64  1  0
 28 65  1  0
 28 66  1  0
 32 67  1  0
 32 68  1  0
 33 69  1  0
 35 70  1  0
 36 71  1  0
 37 72  1  0
 38 73  1  0
 40 74  1  0
 42 75  1  0
 46 76  1  0
 49 77  1  0
 49 78  1  0
M  CHG  3   5  -1  23   1  26  -1
M  END
>  <EmbedRMS>  (112) 
0.0817478922938

$$$$

     RDKit          3D

 78 83  0  0  0  0  0  0  0  0999 V2000
   10.2803   43.7665   33.8251 C   0  0  0  0  0  0  0  0  0  0  0  0
   11.4110   43.5919   34.3666 O   0  0  0  0  0  0  0  0  0  0  0  0
    9.3616   42.7251   33.7349 O   0  0  0  0  0  0  0  0  0  0  0  0
    9.8899   41.2268   34.2940 P   0  0  0  0  0  0  0  0  0  0  0  0
   10.3738   41.4565   35.8831 O   0  0  0  0  0  0  0  0  0  0  0  0
    9.9459   45.0736   33.2112 C   0  0  1  0  0  0  0  0  0  0  0  0
   11.0267   46.0291   33.4705 N   0  0  0  0  0  0  0  0  0  0  0  0
    9.7535   44.8538   31.6949 C   0  0  0  0  0  0  0  0  0  0  0  0
    8.7955   45.8410   31.0848 C   0  0  0  0  0  0  0  0  0  0  0  0
    7.4086   45.6007   31.1010 C   0  0  0  0  0  0  0  0  0  0  0  0
    9.2829   46.9878   30.4400 C   0  0  0  0  0  0  0  0  0  0  0  0
    6.5282   46.5013   30.4856 C   0  0  0  0  0  0  0  0  0  0  0  0
    8.4023   47.8892   29.8309 C   0  0  0  0  0  0  0  0  0  0  0  0
    7.0138   47.6506   29.8470 C   0  0  0  0  0  0  0  0  0  0  0  0
    6.0874   48.5172   29.2442 O   0  0  0  0  0  0  0  0  0  0  0  0
    6.4142   49.7037   28.5144 C   0  0  2  0  0  0  0  0  0  0  0  0
    5.1264   50.4706   28.2236 C   0  0  0  0  0  0  0  0  0  0  0  0
    7.1138   49.3688   27.2071 C   0  0  0  0  0  0  0  0  0  0  0  0
    6.6978   48.2236   26.4832 C   0  0  0  0  0  0  0  0  0  0  0  0
    8.1073   50.2315   26.6390 C   0  0  0  0  0  0  0  0  0  0  0  0
    7.2869   47.9663   25.2522 C   0  0  0  0  0  0  0  0  0  0  0  0
    8.6612   49.9273   25.3754 C   0  0  0  0  0  0  0  0  0  0  0  0
    8.5439   51.4193   27.3130 N   0  0  0  0  0  0  0  0  0  0  0  0
    7.0447   46.9170   24.3867 O   0  0  0  0  0  0  0  0  0  0  0  0
    8.2267   48.7821   24.7215 C   0  0  0  0  0  0  0  0  0  0  0  0
    9.1621   51.3235   28.5377 O   0  0  0  0  0  0  0  0  0  0  0  0
    8.6185   52.4943   26.6832 O   0  0  0  0  0  0  0  0  0  0  0  0
    7.8901   47.0849   23.2404 C   0  0  0  0  0  0  0  0  0  0  0  0
    8.6275   48.2884   23.4950 O   0  0  0  0  0  0  0  0  0  0  0  0
    8.8123   40.1845   34.2134 O   0  0  0  0  0  0  0  0  0  0  0  0
   11.2400   40.7954   33.3680 O   0  0  0  0  0  0  0  0  0  0  0  0
   10.9124   40.6877   31.9967 C   0  0  0  0  0  0  0  0  0  0  0  0
   11.5169   39.3811   31.4420 C   0  0  0  0  0  0  0  0  0  0  0  0
   12.7500   39.0881   32.0760 O   0  0  0  0  0  0  0  0  0  0  0  0
   10.6043   38.1893   31.6659 C   0  0  0  0  0  0  0  0  0  0  0  0
   12.9395   37.6814   32.0280 C   0  0  0  0  0  0  0  0  0  0  0  0
    9.6353   38.0951   30.6499 O   0  0  0  0  0  0  0  0  0  0  0  0
   11.5804   37.0191   31.6934 C   0  0  0  0  0  0  0  0  0  0  0  0
   13.4851   37.2119   33.3244 N   0  0  0  0  0  0  0  0  0  0  0  0
   11.6118   36.3189   30.4673 O   0  0  0  0  0  0  0  0  0  0  0  0
   14.4801   36.3316   33.5732 C   0  0  0  0  0  0  0  0  0  0  0  0
   13.1139   37.6277   34.5692 C   0  0  0  0  0  0  0  0  0  0  0  0
   15.2076   35.6154   32.6744 N   0  0  0  0  0  0  0  0  0  0  0  0
   14.6756   36.2303   34.9186 C   0  0  0  0  0  0  0  0  0  0  0  0
   13.8215   37.0451   35.5786 N   0  0  0  0  0  0  0  0  0  0  0  0
   16.1642   34.7602   33.1551 C   0  0  0  0  0  0  0  0  0  0  0  0
   15.6526   35.3505   35.4134 C   0  0  0  0  0  0  0  0  0  0  0  0
   16.3796   34.6316   34.5045 N   0  0  0  0  0  0  0  0  0  0  0  0
   15.9001   35.1933   36.8093 N   0  0  0  0  0  0  0  0  0  0  0  0
    8.9996   45.4383   33.6723 H   0  0  0  0  0  0  0  0  0  0  0  0
   11.0504   46.2278   34.4979 H   0  0  0  0  0  0  0  0  0  0  0  0
   10.7765   46.9368   33.0154 H   0  0  0  0  0  0  0  0  0  0  0  0
    9.3634   43.8352   31.4716 H   0  0  0  0  0  0  0  0  0  0  0  0
   10.7405   44.9069   31.1834 H   0  0  0  0  0  0  0  0  0  0  0  0
    7.0129   44.7164   31.5852 H   0  0  0  0  0  0  0  0  0  0  0  0
   10.3471   47.1863   30.4065 H   0  0  0  0  0  0  0  0  0  0  0  0
    5.4639   46.3037   30.5039 H   0  0  0  0  0  0  0  0  0  0  0  0
    8.8139   48.7624   29.3475 H   0  0  0  0  0  0  0  0  0  0  0  0
    7.0381   50.3490   29.1628 H   0  0  0  0  0  0  0  0  0  0  0  0
    5.3543   51.4129   27.6804 H   0  0  0  0  0  0  0  0  0  0  0  0
    4.6189   50.7281   29.1774 H   0  0  0  0  0  0  0  0  0  0  0  0
    4.4357   49.8542   27.6089 H   0  0  0  0  0  0  0  0  0  0  0  0
    5.9303   47.5604   26.8611 H   0  0  0  0  0  0  0  0  0  0  0  0
    9.4126   50.5622   24.9236 H   0  0  0  0  0  0  0  0  0  0  0  0
    7.2751   47.1991   22.3231 H   0  0  0  0  0  0  0  0  0  0  0  0
    8.5838   46.2234   23.1452 H   0  0  0  0  0  0  0  0  0  0  0  0
    9.8214   40.7221   31.7645 H   0  0  0  0  0  0  0  0  0  0  0  0
   11.3806   41.5456   31.4683 H   0  0  0  0  0  0  0  0  0  0  0  0
   11.6986   39.5088   30.3499 H   0  0  0  0  0  0  0  0  0  0  0  0
   10.1109   38.2737   32.6630 H   0  0  0  0  0  0  0  0  0  0  0  0
   13.6783   37.4562   31.2271 H   0  0  0  0  0  0  0  0  0  0  0  0
    9.0020   37.3860   30.9348 H   0  0  0  0  0  0  0  0  0  0  0  0
   11.2808   36.3052   32.4921 H   0  0  0  0  0  0  0  0  0  0  0  0
   11.8819   36.9600   29.7584 H   0  0  0  0  0  0  0  0  0  0  0  0
   12.3303   38.3538   34.7446 H   0  0  0  0  0  0  0  0  0  0  0  0
   16.7563   34.1783   32.4623 H   0  0  0  0  0  0  0  0  0  0  0  0
   15.3532   35.7359   37.5142 H   0  0  0  0  0  0  0  0  0  0  0  0
   16.6348   34.5301   37.1418 H   0  0  0  0  0  0  0  0  0  0  0  0
  1  2  2  0
  1  3  1  0
  3  4  1  0
  4  5  1  0
  6  1  1  0
  7  6  1  0
  6  8  1  0
  8  9  1  0
  9 10  2  0
 11  9  1  0
 10 12  1  0
 13 11  2  0
 12 14  2  0
 14 13  1  0
 14 15  1  0
 15 16  1  0
 16 17  1  0
 16 18  1  0
 18 19  2  0
 20 18  1  0
 19 21  1  0
 22 20  2  0
 20 23  1  0
 21 24  1  0
 21 25  2  0
 25 22  1  0
 23 26  1  0
 23 27  2  0
 24 28  1  0
 25 29  1  0
 28 29  1  0
  4 30  2  0
  4 31  1  0
 32 31  1  0
 32 33  1  0
 33 34  1  0
 33 35  1  0
 34 36  1  0
 35 37  1  0
 35 38  1  0
 38 36  1  0
 36 39  1  0
 38 40  1  0
 41 39  1  0
 42 39  1  0
 43 41  2  0
 41 44  1  0
 45 42  2  0
 46 43  1  0
 44 47  2  0
 44 45  1  0
 48 46  2  0
 48 47  1  0
 47 49  1  0
  6 50  1  1
  7 51  1  0
  7 52  1  0
  8 53  1  0
  8 54  1  0
 10 55  1  0
 11 56  1  0
 12 57  1  0
 13 58  1  0
 16 59  1  1
 17 60  1  0
 17 61  1  0
 17 62  1  0
 19 63  1  0
 22 64  1  0
 28 65  1  0
 28 66  1  0
 32 67  1  0
 32 68  1  0
 33 69  1  0
 35 70  1  0
 36 71  1  0
 37 72  1  0
 38 73  1  0
 40 74  1  0
 42 75  1  0
 46 76  1  0
 49 77  1  0
 49 78  1  0
M  CHG  3   5  -1  23   1  26  -1
M  END
>  <EmbedRMS>  (113) 
0.0813940443743

$$$$

     RDKit          3D

 78 83  0  0  0  0  0  0  0  0999 V2000
   10.2833   43.7662   33.8257 C   0  0  0  0  0  0  0  0  0  0  0  0
   11.4101   43.5930   34.3752 O   0  0  0  0  0  0  0  0  0  0  0  0
    9.3635   42.7257   33.7353 O   0  0  0  0  0  0  0  0  0  0  0  0
    9.8902   41.2269   34.2942 P   0  0  0  0  0  0  0  0  0  0  0  0
   10.3739   41.4559   35.8835 O   0  0  0  0  0  0  0  0  0  0  0  0
    9.9546   45.0695   33.2034 C   0  0  1  0  0  0  0  0  0  0  0  0
   11.0273   46.0322   33.4755 N   0  0  0  0  0  0  0  0  0  0  0  0
    9.7466   44.8479   31.6875 C   0  0  0  0  0  0  0  0  0  0  0  0
    8.7924   45.8405   31.0840 C   0  0  0  0  0  0  0  0  0  0  0  0
    7.4056   45.6018   31.0995 C   0  0  0  0  0  0  0  0  0  0  0  0
    9.2821   46.9878   30.4427 C   0  0  0  0  0  0  0  0  0  0  0  0
    6.5269   46.5038   30.4850 C   0  0  0  0  0  0  0  0  0  0  0  0
    8.4030   47.8904   29.8328 C   0  0  0  0  0  0  0  0  0  0  0  0
    7.0141   47.6521   29.8452 C   0  0  0  0  0  0  0  0  0  0  0  0
    6.0868   48.5183   29.2425 O   0  0  0  0  0  0  0  0  0  0  0  0
    6.4101   49.6691   28.4613 C   0  0  2  0  0  0  0  0  0  0  0  0
    5.1506   50.5091   28.2472 C   0  0  0  0  0  0  0  0  0  0  0  0
    7.0386   49.2793   27.1313 C   0  0  0  0  0  0  0  0  0  0  0  0
    8.2930   49.8465   26.7967 C   0  0  0  0  0  0  0  0  0  0  0  0
    6.3916   48.4139   26.1858 C   0  0  0  0  0  0  0  0  0  0  0  0
    8.8551   49.5406   25.5642 C   0  0  0  0  0  0  0  0  0  0  0  0
    7.0051   48.1500   24.9412 C   0  0  0  0  0  0  0  0  0  0  0  0
    5.1184   47.8160   26.4572 N   0  0  0  0  0  0  0  0  0  0  0  0
   10.0566   49.9737   25.0371 O   0  0  0  0  0  0  0  0  0  0  0  0
    8.2380   48.7294   24.6752 C   0  0  0  0  0  0  0  0  0  0  0  0
    5.0077   46.8619   27.4403 O   0  0  0  0  0  0  0  0  0  0  0  0
    4.1957   47.9318   25.6247 O   0  0  0  0  0  0  0  0  0  0  0  0
   10.2020   49.3943   23.7333 C   0  0  0  0  0  0  0  0  0  0  0  0
    9.0184   48.6075   23.5417 O   0  0  0  0  0  0  0  0  0  0  0  0
    8.8121   40.1851   34.2131 O   0  0  0  0  0  0  0  0  0  0  0  0
   11.2402   40.7952   33.3681 O   0  0  0  0  0  0  0  0  0  0  0  0
   10.9126   40.6877   31.9968 C   0  0  0  0  0  0  0  0  0  0  0  0
   11.5169   39.3811   31.4420 C   0  0  0  0  0  0  0  0  0  0  0  0
   12.7500   39.0881   32.0759 O   0  0  0  0  0  0  0  0  0  0  0  0
   10.6043   38.1893   31.6659 C   0  0  0  0  0  0  0  0  0  0  0  0
   12.9395   37.6814   32.0280 C   0  0  0  0  0  0  0  0  0  0  0  0
    9.6353   38.0951   30.6499 O   0  0  0  0  0  0  0  0  0  0  0  0
   11.5804   37.0191   31.6934 C   0  0  0  0  0  0  0  0  0  0  0  0
   13.4851   37.2119   33.3244 N   0  0  0  0  0  0  0  0  0  0  0  0
   11.6118   36.3189   30.4673 O   0  0  0  0  0  0  0  0  0  0  0  0
   14.4801   36.3316   33.5732 C   0  0  0  0  0  0  0  0  0  0  0  0
   13.1139   37.6277   34.5692 C   0  0  0  0  0  0  0  0  0  0  0  0
   15.2076   35.6154   32.6744 N   0  0  0  0  0  0  0  0  0  0  0  0
   14.6756   36.2303   34.9186 C   0  0  0  0  0  0  0  0  0  0  0  0
   13.8215   37.0451   35.5786 N   0  0  0  0  0  0  0  0  0  0  0  0
   16.1642   34.7602   33.1551 C   0  0  0  0  0  0  0  0  0  0  0  0
   15.6526   35.3505   35.4134 C   0  0  0  0  0  0  0  0  0  0  0  0
   16.3796   34.6316   34.5045 N   0  0  0  0  0  0  0  0  0  0  0  0
   15.9001   35.1933   36.8093 N   0  0  0  0  0  0  0  0  0  0  0  0
    9.0120   45.4318   33.6712 H   0  0  0  0  0  0  0  0  0  0  0  0
   11.8906   45.7658   32.9468 H   0  0  0  0  0  0  0  0  0  0  0  0
   10.7259   46.9687   33.1212 H   0  0  0  0  0  0  0  0  0  0  0  0
   10.7230   44.8813   31.1555 H   0  0  0  0  0  0  0  0  0  0  0  0
    9.3416   43.8327   31.4762 H   0  0  0  0  0  0  0  0  0  0  0  0
    7.0083   44.7172   31.5819 H   0  0  0  0  0  0  0  0  0  0  0  0
   10.3465   47.1861   30.4141 H   0  0  0  0  0  0  0  0  0  0  0  0
    5.4624   46.3072   30.5026 H   0  0  0  0  0  0  0  0  0  0  0  0
    8.8173   48.7677   29.3601 H   0  0  0  0  0  0  0  0  0  0  0  0
    7.1062   50.3084   29.0489 H   0  0  0  0  0  0  0  0  0  0  0  0
    4.3467   49.9175   27.7645 H   0  0  0  0  0  0  0  0  0  0  0  0
    4.7724   50.8689   29.2276 H   0  0  0  0  0  0  0  0  0  0  0  0
    5.3816   51.3931   27.6149 H   0  0  0  0  0  0  0  0  0  0  0  0
    8.8127   50.5148   27.4715 H   0  0  0  0  0  0  0  0  0  0  0  0
    6.5361   47.5040   24.2101 H   0  0  0  0  0  0  0  0  0  0  0  0
   11.1026   48.7460   23.6994 H   0  0  0  0  0  0  0  0  0  0  0  0
   10.2610   50.1916   22.9631 H   0  0  0  0  0  0  0  0  0  0  0  0
   11.3808   41.5456   31.4686 H   0  0  0  0  0  0  0  0  0  0  0  0
    9.8216   40.7222   31.7647 H   0  0  0  0  0  0  0  0  0  0  0  0
   11.6986   39.5089   30.3499 H   0  0  0  0  0  0  0  0  0  0  0  0
   10.1109   38.2737   32.6630 H   0  0  0  0  0  0  0  0  0  0  0  0
   13.6783   37.4562   31.2271 H   0  0  0  0  0  0  0  0  0  0  0  0
    9.0020   37.3860   30.9348 H   0  0  0  0  0  0  0  0  0  0  0  0
   11.2807   36.3053   32.4921 H   0  0  0  0  0  0  0  0  0  0  0  0
   11.8818   36.9600   29.7584 H   0  0  0  0  0  0  0  0  0  0  0  0
   12.3303   38.3538   34.7445 H   0  0  0  0  0  0  0  0  0  0  0  0
   16.7563   34.1783   32.4624 H   0  0  0  0  0  0  0  0  0  0  0  0
   16.6348   34.5301   37.1418 H   0  0  0  0  0  0  0  0  0  0  0  0
   15.3532   35.7359   37.5142 H   0  0  0  0  0  0  0  0  0  0  0  0
  1  2  2  0
  1  3  1  0
  3  4  1  0
  4  5  1  0
  6  1  1  0
  7  6  1  0
  6  8  1  0
  8  9  1  0
  9 10  2  0
 11  9  1  0
 10 12  1  0
 13 11  2  0
 12 14  2  0
 14 13  1  0
 14 15  1  0
 15 16  1  0
 16 17  1  0
 16 18  1  0
 18 19  2  0
 20 18  1  0
 19 21  1  0
 22 20  2  0
 20 23  1  0
 21 24  1  0
 21 25  2  0
 25 22  1  0
 23 26  1  0
 23 27  2  0
 24 28  1  0
 25 29  1  0
 28 29  1  0
  4 30  2  0
  4 31  1  0
 32 31  1  0
 32 33  1  0
 33 34  1  0
 33 35  1  0
 34 36  1  0
 35 37  1  0
 35 38  1  0
 38 36  1  0
 36 39  1  0
 38 40  1  0
 41 39  1  0
 42 39  1  0
 43 41  2  0
 41 44  1  0
 45 42  2  0
 46 43  1  0
 44 47  2  0
 44 45  1  0
 48 46  2  0
 48 47  1  0
 47 49  1  0
  6 50  1  1
  7 51  1  0
  7 52  1  0
  8 53  1  0
  8 54  1  0
 10 55  1  0
 11 56  1  0
 12 57  1  0
 13 58  1  0
 16 59  1  1
 17 60  1  0
 17 61  1  0
 17 62  1  0
 19 63  1  0
 22 64  1  0
 28 65  1  0
 28 66  1  0
 32 67  1  0
 32 68  1  0
 33 69  1  0
 35 70  1  0
 36 71  1  0
 37 72  1  0
 38 73  1  0
 40 74  1  0
 42 75  1  0
 46 76  1  0
 49 77  1  0
 49 78  1  0
M  CHG  3   5  -1  23   1  26  -1
M  END
>  <EmbedRMS>  (114) 
0.0815781356045

$$$$

     RDKit          3D

 78 83  0  0  0  0  0  0  0  0999 V2000
   10.2834   43.7662   33.8256 C   0  0  0  0  0  0  0  0  0  0  0  0
   11.4102   43.5930   34.3752 O   0  0  0  0  0  0  0  0  0  0  0  0
    9.3637   42.7255   33.7349 O   0  0  0  0  0  0  0  0  0  0  0  0
    9.8902   41.2267   34.2942 P   0  0  0  0  0  0  0  0  0  0  0  0
   10.3736   41.4560   35.8836 O   0  0  0  0  0  0  0  0  0  0  0  0
    9.9546   45.0694   33.2035 C   0  0  1  0  0  0  0  0  0  0  0  0
   11.0273   46.0321   33.4756 N   0  0  0  0  0  0  0  0  0  0  0  0
    9.7466   44.8480   31.6875 C   0  0  0  0  0  0  0  0  0  0  0  0
    8.7924   45.8407   31.0842 C   0  0  0  0  0  0  0  0  0  0  0  0
    7.4055   45.6018   31.0995 C   0  0  0  0  0  0  0  0  0  0  0  0
    9.2823   46.9879   30.4426 C   0  0  0  0  0  0  0  0  0  0  0  0
    6.5266   46.5036   30.4846 C   0  0  0  0  0  0  0  0  0  0  0  0
    8.4032   47.8903   29.8325 C   0  0  0  0  0  0  0  0  0  0  0  0
    7.0141   47.6519   29.8457 C   0  0  0  0  0  0  0  0  0  0  0  0
    6.0890   48.5189   29.2412 O   0  0  0  0  0  0  0  0  0  0  0  0
    6.4224   49.6768   28.4706 C   0  0  2  0  0  0  0  0  0  0  0  0
    5.1434   50.4629   28.1874 C   0  0  0  0  0  0  0  0  0  0  0  0
    7.0858   49.2748   27.1641 C   0  0  0  0  0  0  0  0  0  0  0  0
    6.5338   48.1973   26.4286 C   0  0  0  0  0  0  0  0  0  0  0  0
    8.2784   49.9120   26.6867 C   0  0  0  0  0  0  0  0  0  0  0  0
    7.1919   47.7698   25.2832 C   0  0  0  0  0  0  0  0  0  0  0  0
    8.9130   49.4225   25.5217 C   0  0  0  0  0  0  0  0  0  0  0  0
    8.8405   51.0529   27.3534 N   0  0  0  0  0  0  0  0  0  0  0  0
    6.8466   46.7417   24.4273 O   0  0  0  0  0  0  0  0  0  0  0  0
    8.3338   48.3530   24.8518 C   0  0  0  0  0  0  0  0  0  0  0  0
    8.0373   52.1144   27.7006 O   0  0  0  0  0  0  0  0  0  0  0  0
   10.0797   51.1884   27.4200 O   0  0  0  0  0  0  0  0  0  0  0  0
    7.8365   46.6773   23.3915 C   0  0  0  0  0  0  0  0  0  0  0  0
    8.7672   47.7238   23.7006 O   0  0  0  0  0  0  0  0  0  0  0  0
    8.8121   40.1850   34.2131 O   0  0  0  0  0  0  0  0  0  0  0  0
   11.2404   40.7941   33.3690 O   0  0  0  0  0  0  0  0  0  0  0  0
   10.9144   40.6898   31.9972 C   0  0  0  0  0  0  0  0  0  0  0  0
   11.5261   39.3885   31.4376 C   0  0  0  0  0  0  0  0  0  0  0  0
   12.7504   39.0888   32.0815 O   0  0  0  0  0  0  0  0  0  0  0  0
   10.6115   38.1910   31.6460 C   0  0  0  0  0  0  0  0  0  0  0  0
   12.9357   37.6812   32.0303 C   0  0  0  0  0  0  0  0  0  0  0  0
    9.6146   38.0859   30.6534 O   0  0  0  0  0  0  0  0  0  0  0  0
   11.5769   37.0148   31.7012 C   0  0  0  0  0  0  0  0  0  0  0  0
   13.4849   37.2112   33.3247 N   0  0  0  0  0  0  0  0  0  0  0  0
   11.6193   36.3261   30.4724 O   0  0  0  0  0  0  0  0  0  0  0  0
   14.4802   36.3313   33.5730 C   0  0  0  0  0  0  0  0  0  0  0  0
   13.1141   37.6268   34.5697 C   0  0  0  0  0  0  0  0  0  0  0  0
   15.2075   35.6151   32.6741 N   0  0  0  0  0  0  0  0  0  0  0  0
   14.6761   36.2300   34.9184 C   0  0  0  0  0  0  0  0  0  0  0  0
   13.8220   37.0445   35.5789 N   0  0  0  0  0  0  0  0  0  0  0  0
   16.1642   34.7600   33.1547 C   0  0  0  0  0  0  0  0  0  0  0  0
   15.6529   35.3503   35.4132 C   0  0  0  0  0  0  0  0  0  0  0  0
   16.3797   34.6314   34.5042 N   0  0  0  0  0  0  0  0  0  0  0  0
   15.9004   35.1930   36.8090 N   0  0  0  0  0  0  0  0  0  0  0  0
    9.0121   45.4317   33.6713 H   0  0  0  0  0  0  0  0  0  0  0  0
   11.8906   45.7658   32.9469 H   0  0  0  0  0  0  0  0  0  0  0  0
   10.7259   46.9687   33.1212 H   0  0  0  0  0  0  0  0  0  0  0  0
    9.3415   43.8329   31.4761 H   0  0  0  0  0  0  0  0  0  0  0  0
   10.7230   44.8814   31.1556 H   0  0  0  0  0  0  0  0  0  0  0  0
    7.0083   44.7172   31.5819 H   0  0  0  0  0  0  0  0  0  0  0  0
   10.3468   47.1856   30.4129 H   0  0  0  0  0  0  0  0  0  0  0  0
    5.4621   46.3069   30.5017 H   0  0  0  0  0  0  0  0  0  0  0  0
    8.8170   48.7665   29.3551 H   0  0  0  0  0  0  0  0  0  0  0  0
    7.0818   50.3225   29.0860 H   0  0  0  0  0  0  0  0  0  0  0  0
    4.6818   50.7845   29.1450 H   0  0  0  0  0  0  0  0  0  0  0  0
    4.4115   49.8350   27.6357 H   0  0  0  0  0  0  0  0  0  0  0  0
    5.3703   51.3677   27.5844 H   0  0  0  0  0  0  0  0  0  0  0  0
    5.6321   47.6936   26.7533 H   0  0  0  0  0  0  0  0  0  0  0  0
    9.8167   49.8785   25.1383 H   0  0  0  0  0  0  0  0  0  0  0  0
    7.3688   46.8606   22.4015 H   0  0  0  0  0  0  0  0  0  0  0  0
    8.3479   45.6921   23.4097 H   0  0  0  0  0  0  0  0  0  0  0  0
    9.8233   40.7192   31.7646 H   0  0  0  0  0  0  0  0  0  0  0  0
   11.3779   41.5526   31.4727 H   0  0  0  0  0  0  0  0  0  0  0  0
   11.7283   39.5312   30.3515 H   0  0  0  0  0  0  0  0  0  0  0  0
   10.1127   38.2734   32.6377 H   0  0  0  0  0  0  0  0  0  0  0  0
   13.6693   37.4566   31.2242 H   0  0  0  0  0  0  0  0  0  0  0  0
   10.0533   38.1118   29.7636 H   0  0  0  0  0  0  0  0  0  0  0  0
   11.2607   36.3148   32.5102 H   0  0  0  0  0  0  0  0  0  0  0  0
   12.1496   35.5023   30.6323 H   0  0  0  0  0  0  0  0  0  0  0  0
   12.3301   38.3524   34.7455 H   0  0  0  0  0  0  0  0  0  0  0  0
   16.7562   34.1780   32.4619 H   0  0  0  0  0  0  0  0  0  0  0  0
   15.3535   35.7357   37.5139 H   0  0  0  0  0  0  0  0  0  0  0  0
   16.6350   34.5298   37.1416 H   0  0  0  0  0  0  0  0  0  0  0  0
  1  2  2  0
  1  3  1  0
  3  4  1  0
  4  5  1  0
  6  1  1  0
  7  6  1  0
  6  8  1  0
  8  9  1  0
  9 10  2  0
 11  9  1  0
 10 12  1  0
 13 11  2  0
 12 14  2  0
 14 13  1  0
 14 15  1  0
 15 16  1  0
 16 17  1  0
 16 18  1  0
 18 19  2  0
 20 18  1  0
 19 21  1  0
 22 20  2  0
 20 23  1  0
 21 24  1  0
 21 25  2  0
 25 22  1  0
 23 26  1  0
 23 27  2  0
 24 28  1  0
 25 29  1  0
 28 29  1  0
  4 30  2  0
  4 31  1  0
 32 31  1  0
 32 33  1  0
 33 34  1  0
 33 35  1  0
 34 36  1  0
 35 37  1  0
 35 38  1  0
 38 36  1  0
 36 39  1  0
 38 40  1  0
 41 39  1  0
 42 39  1  0
 43 41  2  0
 41 44  1  0
 45 42  2  0
 46 43  1  0
 44 47  2  0
 44 45  1  0
 48 46  2  0
 48 47  1  0
 47 49  1  0
  6 50  1  1
  7 51  1  0
  7 52  1  0
  8 53  1  0
  8 54  1  0
 10 55  1  0
 11 56  1  0
 12 57  1  0
 13 58  1  0
 16 59  1  1
 17 60  1  0
 17 61  1  0
 17 62  1  0
 19 63  1  0
 22 64  1  0
 28 65  1  0
 28 66  1  0
 32 67  1  0
 32 68  1  0
 33 69  1  0
 35 70  1  0
 36 71  1  0
 37 72  1  0
 38 73  1  0
 40 74  1  0
 42 75  1  0
 46 76  1  0
 49 77  1  0
 49 78  1  0
M  CHG  3   5  -1  23   1  26  -1
M  END
>  <EmbedRMS>  (115) 
0.0816358481006

$$$$

     RDKit          3D

 78 83  0  0  0  0  0  0  0  0999 V2000
   10.2804   43.7664   33.8249 C   0  0  0  0  0  0  0  0  0  0  0  0
   11.4110   43.5919   34.3667 O   0  0  0  0  0  0  0  0  0  0  0  0
    9.3620   42.7248   33.7343 O   0  0  0  0  0  0  0  0  0  0  0  0
    9.8903   41.2265   34.2936 P   0  0  0  0  0  0  0  0  0  0  0  0
   10.3732   41.4565   35.8831 O   0  0  0  0  0  0  0  0  0  0  0  0
    9.9458   45.0736   33.2112 C   0  0  1  0  0  0  0  0  0  0  0  0
   11.0264   46.0294   33.4709 N   0  0  0  0  0  0  0  0  0  0  0  0
    9.7540   44.8542   31.6948 C   0  0  0  0  0  0  0  0  0  0  0  0
    8.7957   45.8411   31.0846 C   0  0  0  0  0  0  0  0  0  0  0  0
    7.4090   45.5997   31.1007 C   0  0  0  0  0  0  0  0  0  0  0  0
    9.2825   46.9875   30.4389 C   0  0  0  0  0  0  0  0  0  0  0  0
    6.5260   46.4984   30.4860 C   0  0  0  0  0  0  0  0  0  0  0  0
    8.3999   47.8870   29.8304 C   0  0  0  0  0  0  0  0  0  0  0  0
    7.0184   47.6557   29.8485 C   0  0  0  0  0  0  0  0  0  0  0  0
    6.1791   48.5987   29.2323 O   0  0  0  0  0  0  0  0  0  0  0  0
    4.7504   48.5575   29.2326 C   0  0  2  0  0  0  0  0  0  0  0  0
    4.2006   49.5973   28.2569 C   0  0  0  0  0  0  0  0  0  0  0  0
    4.1668   48.7669   30.6227 C   0  0  0  0  0  0  0  0  0  0  0  0
    2.9651   48.0832   30.9284 C   0  0  0  0  0  0  0  0  0  0  0  0
    4.7915   49.5719   31.6391 C   0  0  0  0  0  0  0  0  0  0  0  0
    2.4443   48.1906   32.2106 C   0  0  0  0  0  0  0  0  0  0  0  0
    4.2215   49.6279   32.9310 C   0  0  0  0  0  0  0  0  0  0  0  0
    5.9940   50.3184   31.3969 N   0  0  0  0  0  0  0  0  0  0  0  0
    1.3016   47.6087   32.7251 O   0  0  0  0  0  0  0  0  0  0  0  0
    3.0480   48.9267   33.1706 C   0  0  0  0  0  0  0  0  0  0  0  0
    6.9545   50.4002   32.3785 O   0  0  0  0  0  0  0  0  0  0  0  0
    6.0824   51.0702   30.4056 O   0  0  0  0  0  0  0  0  0  0  0  0
    1.1818   48.0073   34.0975 C   0  0  0  0  0  0  0  0  0  0  0  0
    2.3176   48.8484   34.3408 O   0  0  0  0  0  0  0  0  0  0  0  0
    8.8128   40.1842   34.2125 O   0  0  0  0  0  0  0  0  0  0  0  0
   11.2416   40.7945   33.3692 O   0  0  0  0  0  0  0  0  0  0  0  0
   10.9178   40.6904   31.9968 C   0  0  0  0  0  0  0  0  0  0  0  0
   11.5181   39.3813   31.4408 C   0  0  0  0  0  0  0  0  0  0  0  0
   12.7497   39.0870   32.0746 O   0  0  0  0  0  0  0  0  0  0  0  0
   10.6045   38.1891   31.6655 C   0  0  0  0  0  0  0  0  0  0  0  0
   12.9344   37.6801   32.0290 C   0  0  0  0  0  0  0  0  0  0  0  0
    9.6418   38.0758   30.6441 O   0  0  0  0  0  0  0  0  0  0  0  0
   11.5741   37.0170   31.7045 C   0  0  0  0  0  0  0  0  0  0  0  0
   13.4851   37.2126   33.3241 N   0  0  0  0  0  0  0  0  0  0  0  0
   11.6079   36.3407   30.4680 O   0  0  0  0  0  0  0  0  0  0  0  0
   14.4801   36.3321   33.5727 C   0  0  0  0  0  0  0  0  0  0  0  0
   13.1140   37.6277   34.5693 C   0  0  0  0  0  0  0  0  0  0  0  0
   15.2073   35.6155   32.6739 N   0  0  0  0  0  0  0  0  0  0  0  0
   14.6758   36.2306   34.9182 C   0  0  0  0  0  0  0  0  0  0  0  0
   13.8217   37.0450   35.5785 N   0  0  0  0  0  0  0  0  0  0  0  0
   16.1639   34.7602   33.1546 C   0  0  0  0  0  0  0  0  0  0  0  0
   15.6526   35.3506   35.4130 C   0  0  0  0  0  0  0  0  0  0  0  0
   16.3794   34.6316   34.5041 N   0  0  0  0  0  0  0  0  0  0  0  0
   15.9001   35.1933   36.8089 N   0  0  0  0  0  0  0  0  0  0  0  0
    8.9993   45.4381   33.6720 H   0  0  0  0  0  0  0  0  0  0  0  0
   11.0498   46.2278   34.4983 H   0  0  0  0  0  0  0  0  0  0  0  0
   10.7759   46.9371   33.0161 H   0  0  0  0  0  0  0  0  0  0  0  0
   10.7412   44.9080   31.1836 H   0  0  0  0  0  0  0  0  0  0  0  0
    9.3647   43.8354   31.4710 H   0  0  0  0  0  0  0  0  0  0  0  0
    7.0149   44.7147   31.5852 H   0  0  0  0  0  0  0  0  0  0  0  0
   10.3463   47.1876   30.4050 H   0  0  0  0  0  0  0  0  0  0  0  0
    5.4677   46.2819   30.5165 H   0  0  0  0  0  0  0  0  0  0  0  0
    8.7913   48.7709   29.3429 H   0  0  0  0  0  0  0  0  0  0  0  0
    4.4384   47.5637   28.8395 H   0  0  0  0  0  0  0  0  0  0  0  0
    4.4355   50.6287   28.5874 H   0  0  0  0  0  0  0  0  0  0  0  0
    3.0973   49.4952   28.1737 H   0  0  0  0  0  0  0  0  0  0  0  0
    4.6431   49.4379   27.2507 H   0  0  0  0  0  0  0  0  0  0  0  0
    2.4592   47.4720   30.1915 H   0  0  0  0  0  0  0  0  0  0  0  0
    4.6714   50.2174   33.7196 H   0  0  0  0  0  0  0  0  0  0  0  0
    1.2151   47.1172   34.7602 H   0  0  0  0  0  0  0  0  0  0  0  0
    0.2422   48.5783   34.2510 H   0  0  0  0  0  0  0  0  0  0  0  0
   11.3944   41.5458   31.4719 H   0  0  0  0  0  0  0  0  0  0  0  0
    9.8288   40.7385   31.7615 H   0  0  0  0  0  0  0  0  0  0  0  0
   11.6994   39.5068   30.3484 H   0  0  0  0  0  0  0  0  0  0  0  0
   10.1090   38.2634   32.6632 H   0  0  0  0  0  0  0  0  0  0  0  0
   13.6662   37.4515   31.2224 H   0  0  0  0  0  0  0  0  0  0  0  0
    8.9008   38.6923   30.8794 H   0  0  0  0  0  0  0  0  0  0  0  0
   11.2650   36.3083   32.5087 H   0  0  0  0  0  0  0  0  0  0  0  0
   12.1372   35.5141   30.6163 H   0  0  0  0  0  0  0  0  0  0  0  0
   12.3297   38.3530   34.7450 H   0  0  0  0  0  0  0  0  0  0  0  0
   16.7558   34.1781   32.4619 H   0  0  0  0  0  0  0  0  0  0  0  0
   15.3533   35.7360   37.5138 H   0  0  0  0  0  0  0  0  0  0  0  0
   16.6346   34.5300   37.1414 H   0  0  0  0  0  0  0  0  0  0  0  0
  1  2  2  0
  1  3  1  0
  3  4  1  0
  4  5  1  0
  6  1  1  0
  7  6  1  0
  6  8  1  0
  8  9  1  0
  9 10  2  0
 11  9  1  0
 10 12  1  0
 13 11  2  0
 12 14  2  0
 14 13  1  0
 14 15  1  0
 15 16  1  0
 16 17  1  0
 16 18  1  0
 18 19  2  0
 20 18  1  0
 19 21  1  0
 22 20  2  0
 20 23  1  0
 21 24  1  0
 21 25  2  0
 25 22  1  0
 23 26  1  0
 23 27  2  0
 24 28  1  0
 25 29  1  0
 28 29  1  0
  4 30  2  0
  4 31  1  0
 32 31  1  0
 32 33  1  0
 33 34  1  0
 33 35  1  0
 34 36  1  0
 35 37  1  0
 35 38  1  0
 38 36  1  0
 36 39  1  0
 38 40  1  0
 41 39  1  0
 42 39  1  0
 43 41  2  0
 41 44  1  0
 45 42  2  0
 46 43  1  0
 44 47  2  0
 44 45  1  0
 48 46  2  0
 48 47  1  0
 47 49  1  0
  6 50  1  1
  7 51  1  0
  7 52  1  0
  8 53  1  0
  8 54  1  0
 10 55  1  0
 11 56  1  0
 12 57  1  0
 13 58  1  0
 16 59  1  6
 17 60  1  0
 17 61  1  0
 17 62  1  0
 19 63  1  0
 22 64  1  0
 28 65  1  0
 28 66  1  0
 32 67  1  0
 32 68  1  0
 33 69  1  0
 35 70  1  0
 36 71  1  0
 37 72  1  0
 38 73  1  0
 40 74  1  0
 42 75  1  0
 46 76  1  0
 49 77  1  0
 49 78  1  0
M  CHG  3   5  -1  23   1  26  -1
M  END
>  <EmbedRMS>  (116) 
0.0826578294066

$$$$

     RDKit          3D

 78 83  0  0  0  0  0  0  0  0999 V2000
   10.2802   43.7664   33.8249 C   0  0  0  0  0  0  0  0  0  0  0  0
   11.4109   43.5920   34.3666 O   0  0  0  0  0  0  0  0  0  0  0  0
    9.3617   42.7250   33.7346 O   0  0  0  0  0  0  0  0  0  0  0  0
    9.8897   41.2269   34.2945 P   0  0  0  0  0  0  0  0  0  0  0  0
   10.3734   41.4570   35.8837 O   0  0  0  0  0  0  0  0  0  0  0  0
    9.9456   45.0735   33.2113 C   0  0  1  0  0  0  0  0  0  0  0  0
   11.0261   46.0293   33.4709 N   0  0  0  0  0  0  0  0  0  0  0  0
    9.7537   44.8542   31.6949 C   0  0  0  0  0  0  0  0  0  0  0  0
    8.7956   45.8414   31.0850 C   0  0  0  0  0  0  0  0  0  0  0  0
    7.4090   45.6002   31.1006 C   0  0  0  0  0  0  0  0  0  0  0  0
    9.2825   46.9874   30.4389 C   0  0  0  0  0  0  0  0  0  0  0  0
    6.5262   46.4991   30.4857 C   0  0  0  0  0  0  0  0  0  0  0  0
    8.4000   47.8866   29.8299 C   0  0  0  0  0  0  0  0  0  0  0  0
    7.0179   47.6569   29.8489 C   0  0  0  0  0  0  0  0  0  0  0  0
    6.1811   48.5975   29.2255 O   0  0  0  0  0  0  0  0  0  0  0  0
    4.7534   48.5876   29.2534 C   0  0  2  0  0  0  0  0  0  0  0  0
    4.2159   49.5745   28.2162 C   0  0  0  0  0  0  0  0  0  0  0  0
    4.2233   48.9101   30.6434 C   0  0  0  0  0  0  0  0  0  0  0  0
    3.3344   47.9860   31.2458 C   0  0  0  0  0  0  0  0  0  0  0  0
    4.5381   50.1273   31.3379 C   0  0  0  0  0  0  0  0  0  0  0  0
    2.8004   48.2897   32.4911 C   0  0  0  0  0  0  0  0  0  0  0  0
    3.9526   50.3888   32.5966 C   0  0  0  0  0  0  0  0  0  0  0  0
    5.4219   51.1090   30.7823 N   0  0  0  0  0  0  0  0  0  0  0  0
    1.9252   47.5423   33.2556 O   0  0  0  0  0  0  0  0  0  0  0  0
    3.0952   49.4406   33.1372 C   0  0  0  0  0  0  0  0  0  0  0  0
    6.7510   50.8089   30.6014 O   0  0  0  0  0  0  0  0  0  0  0  0
    5.0638   52.3037   30.7370 O   0  0  0  0  0  0  0  0  0  0  0  0
    1.6556   48.2722   34.4600 C   0  0  0  0  0  0  0  0  0  0  0  0
    2.4223   49.4785   34.3433 O   0  0  0  0  0  0  0  0  0  0  0  0
    8.8123   40.1845   34.2137 O   0  0  0  0  0  0  0  0  0  0  0  0
   11.2401   40.7947   33.3697 O   0  0  0  0  0  0  0  0  0  0  0  0
   10.9142   40.6909   31.9980 C   0  0  0  0  0  0  0  0  0  0  0  0
   11.5271   39.3909   31.4384 C   0  0  0  0  0  0  0  0  0  0  0  0
   12.7520   39.0909   32.0836 O   0  0  0  0  0  0  0  0  0  0  0  0
   10.6115   38.1929   31.6449 C   0  0  0  0  0  0  0  0  0  0  0  0
   12.9414   37.6836   32.0297 C   0  0  0  0  0  0  0  0  0  0  0  0
    9.6064   38.0875   30.6599 O   0  0  0  0  0  0  0  0  0  0  0  0
   11.5823   37.0194   31.6877 C   0  0  0  0  0  0  0  0  0  0  0  0
   13.4840   37.2104   33.3255 N   0  0  0  0  0  0  0  0  0  0  0  0
   11.6180   36.3068   30.4691 O   0  0  0  0  0  0  0  0  0  0  0  0
   14.4799   36.3313   33.5739 C   0  0  0  0  0  0  0  0  0  0  0  0
   13.1136   37.6268   34.5703 C   0  0  0  0  0  0  0  0  0  0  0  0
   15.2074   35.6155   32.6747 N   0  0  0  0  0  0  0  0  0  0  0  0
   14.6759   36.2301   34.9191 C   0  0  0  0  0  0  0  0  0  0  0  0
   13.8218   37.0447   35.5794 N   0  0  0  0  0  0  0  0  0  0  0  0
   16.1641   34.7604   33.1551 C   0  0  0  0  0  0  0  0  0  0  0  0
   15.6529   35.3504   35.4136 C   0  0  0  0  0  0  0  0  0  0  0  0
   16.3796   34.6314   34.5045 N   0  0  0  0  0  0  0  0  0  0  0  0
   15.9003   35.1928   36.8095 N   0  0  0  0  0  0  0  0  0  0  0  0
    8.9990   45.4378   33.6724 H   0  0  0  0  0  0  0  0  0  0  0  0
   11.0496   46.2284   34.4982 H   0  0  0  0  0  0  0  0  0  0  0  0
   10.7749   46.9366   33.0159 H   0  0  0  0  0  0  0  0  0  0  0  0
   10.7410   44.9072   31.1837 H   0  0  0  0  0  0  0  0  0  0  0  0
    9.3635   43.8357   31.4712 H   0  0  0  0  0  0  0  0  0  0  0  0
    7.0149   44.7142   31.5833 H   0  0  0  0  0  0  0  0  0  0  0  0
   10.3463   47.1868   30.4043 H   0  0  0  0  0  0  0  0  0  0  0  0
    5.4706   46.2767   30.5090 H   0  0  0  0  0  0  0  0  0  0  0  0
    8.7929   48.7686   29.3400 H   0  0  0  0  0  0  0  0  0  0  0  0
    4.4027   47.5835   28.9258 H   0  0  0  0  0  0  0  0  0  0  0  0
    4.5243   49.2501   27.1996 H   0  0  0  0  0  0  0  0  0  0  0  0
    3.1057   49.6035   28.2527 H   0  0  0  0  0  0  0  0  0  0  0  0
    4.6117   50.5963   28.3847 H   0  0  0  0  0  0  0  0  0  0  0  0
    3.0562   47.0619   30.7550 H   0  0  0  0  0  0  0  0  0  0  0  0
    4.1700   51.3005   33.1386 H   0  0  0  0  0  0  0  0  0  0  0  0
    1.9888   47.6904   35.3449 H   0  0  0  0  0  0  0  0  0  0  0  0
    0.5738   48.5106   34.5302 H   0  0  0  0  0  0  0  0  0  0  0  0
   11.3767   41.5545   31.4738 H   0  0  0  0  0  0  0  0  0  0  0  0
    9.8232   40.7188   31.7654 H   0  0  0  0  0  0  0  0  0  0  0  0
   11.7314   39.5360   30.3530 H   0  0  0  0  0  0  0  0  0  0  0  0
   10.1206   38.2695   32.6408 H   0  0  0  0  0  0  0  0  0  0  0  0
   13.6851   37.4636   31.2321 H   0  0  0  0  0  0  0  0  0  0  0  0
   10.0248   38.1788   29.7653 H   0  0  0  0  0  0  0  0  0  0  0  0
   11.2758   36.3131   32.4908 H   0  0  0  0  0  0  0  0  0  0  0  0
   11.9826   36.9112   29.7707 H   0  0  0  0  0  0  0  0  0  0  0  0
   12.3309   38.3538   34.7460 H   0  0  0  0  0  0  0  0  0  0  0  0
   16.7562   34.1789   32.4620 H   0  0  0  0  0  0  0  0  0  0  0  0
   15.3535   35.7354   37.5145 H   0  0  0  0  0  0  0  0  0  0  0  0
   16.6353   34.5300   37.1418 H   0  0  0  0  0  0  0  0  0  0  0  0
  1  2  2  0
  1  3  1  0
  3  4  1  0
  4  5  1  0
  6  1  1  0
  7  6  1  0
  6  8  1  0
  8  9  1  0
  9 10  2  0
 11  9  1  0
 10 12  1  0
 13 11  2  0
 12 14  2  0
 14 13  1  0
 14 15  1  0
 15 16  1  0
 16 17  1  0
 16 18  1  0
 18 19  2  0
 20 18  1  0
 19 21  1  0
 22 20  2  0
 20 23  1  0
 21 24  1  0
 21 25  2  0
 25 22  1  0
 23 26  1  0
 23 27  2  0
 24 28  1  0
 25 29  1  0
 28 29  1  0
  4 30  2  0
  4 31  1  0
 32 31  1  0
 32 33  1  0
 33 34  1  0
 33 35  1  0
 34 36  1  0
 35 37  1  0
 35 38  1  0
 38 36  1  0
 36 39  1  0
 38 40  1  0
 41 39  1  0
 42 39  1  0
 43 41  2  0
 41 44  1  0
 45 42  2  0
 46 43  1  0
 44 47  2  0
 44 45  1  0
 48 46  2  0
 48 47  1  0
 47 49  1  0
  6 50  1  1
  7 51  1  0
  7 52  1  0
  8 53  1  0
  8 54  1  0
 10 55  1  0
 11 56  1  0
 12 57  1  0
 13 58  1  0
 16 59  1  6
 17 60  1  0
 17 61  1  0
 17 62  1  0
 19 63  1  0
 22 64  1  0
 28 65  1  0
 28 66  1  0
 32 67  1  0
 32 68  1  0
 33 69  1  0
 35 70  1  0
 36 71  1  0
 37 72  1  0
 38 73  1  0
 40 74  1  0
 42 75  1  0
 46 76  1  0
 49 77  1  0
 49 78  1  0
M  CHG  3   5  -1  23   1  26  -1
M  END
>  <EmbedRMS>  (117) 
0.0806594465145

$$$$

     RDKit          3D

 78 83  0  0  0  0  0  0  0  0999 V2000
   10.2834   43.7662   33.8253 C   0  0  0  0  0  0  0  0  0  0  0  0
   11.4101   43.5932   34.3751 O   0  0  0  0  0  0  0  0  0  0  0  0
    9.3637   42.7254   33.7349 O   0  0  0  0  0  0  0  0  0  0  0  0
    9.8903   41.2268   34.2945 P   0  0  0  0  0  0  0  0  0  0  0  0
   10.3728   41.4562   35.8842 O   0  0  0  0  0  0  0  0  0  0  0  0
    9.9545   45.0694   33.2030 C   0  0  1  0  0  0  0  0  0  0  0  0
   11.0272   46.0321   33.4752 N   0  0  0  0  0  0  0  0  0  0  0  0
    9.7464   44.8483   31.6870 C   0  0  0  0  0  0  0  0  0  0  0  0
    8.7920   45.8411   31.0840 C   0  0  0  0  0  0  0  0  0  0  0  0
    7.4037   45.6020   31.1004 C   0  0  0  0  0  0  0  0  0  0  0  0
    9.2826   46.9898   30.4428 C   0  0  0  0  0  0  0  0  0  0  0  0
    6.5240   46.5046   30.4867 C   0  0  0  0  0  0  0  0  0  0  0  0
    8.4014   47.8912   29.8341 C   0  0  0  0  0  0  0  0  0  0  0  0
    7.0211   47.6464   29.8438 C   0  0  0  0  0  0  0  0  0  0  0  0
    6.1431   48.5550   29.2475 O   0  0  0  0  0  0  0  0  0  0  0  0
    5.7805   48.5270   27.8633 C   0  0  2  0  0  0  0  0  0  0  0  0
    4.7929   47.3934   27.5679 C   0  0  0  0  0  0  0  0  0  0  0  0
    7.0080   48.5885   26.9545 C   0  0  0  0  0  0  0  0  0  0  0  0
    7.4619   49.8776   26.5771 C   0  0  0  0  0  0  0  0  0  0  0  0
    7.7779   47.4427   26.5506 C   0  0  0  0  0  0  0  0  0  0  0  0
    8.6268   49.9864   25.8289 C   0  0  0  0  0  0  0  0  0  0  0  0
    8.9581   47.6147   25.7967 C   0  0  0  0  0  0  0  0  0  0  0  0
    7.3872   46.1085   26.8775 N   0  0  0  0  0  0  0  0  0  0  0  0
    9.2430   51.1309   25.3606 O   0  0  0  0  0  0  0  0  0  0  0  0
    9.3442   48.9028   25.4566 C   0  0  0  0  0  0  0  0  0  0  0  0
    8.1585   45.3880   27.7584 O   0  0  0  0  0  0  0  0  0  0  0  0
    6.6436   45.4895   26.0895 O   0  0  0  0  0  0  0  0  0  0  0  0
   10.4226   50.7374   24.6459 C   0  0  0  0  0  0  0  0  0  0  0  0
   10.4492   49.3061   24.7320 O   0  0  0  0  0  0  0  0  0  0  0  0
    8.8125   40.1848   34.2125 O   0  0  0  0  0  0  0  0  0  0  0  0
   11.2416   40.7948   33.3706 O   0  0  0  0  0  0  0  0  0  0  0  0
   10.9179   40.6922   31.9983 C   0  0  0  0  0  0  0  0  0  0  0  0
   11.5175   39.3838   31.4422 C   0  0  0  0  0  0  0  0  0  0  0  0
   12.7507   39.0887   32.0752 O   0  0  0  0  0  0  0  0  0  0  0  0
   10.6027   38.1917   31.6659 C   0  0  0  0  0  0  0  0  0  0  0  0
   12.9384   37.6819   32.0278 C   0  0  0  0  0  0  0  0  0  0  0  0
    9.6371   38.0806   30.6470 O   0  0  0  0  0  0  0  0  0  0  0  0
   11.5780   37.0216   31.6935 C   0  0  0  0  0  0  0  0  0  0  0  0
   13.4844   37.2119   33.3242 N   0  0  0  0  0  0  0  0  0  0  0  0
   11.6095   36.3202   30.4679 O   0  0  0  0  0  0  0  0  0  0  0  0
   14.4797   36.3318   33.5730 C   0  0  0  0  0  0  0  0  0  0  0  0
   13.1136   37.6278   34.5691 C   0  0  0  0  0  0  0  0  0  0  0  0
   15.2073   35.6155   32.6742 N   0  0  0  0  0  0  0  0  0  0  0  0
   14.6754   36.2305   34.9184 C   0  0  0  0  0  0  0  0  0  0  0  0
   13.8213   37.0452   35.5785 N   0  0  0  0  0  0  0  0  0  0  0  0
   16.1640   34.7604   33.1549 C   0  0  0  0  0  0  0  0  0  0  0  0
   15.6524   35.3507   35.4133 C   0  0  0  0  0  0  0  0  0  0  0  0
   16.3794   34.6318   34.5044 N   0  0  0  0  0  0  0  0  0  0  0  0
   15.9000   35.1934   36.8091 N   0  0  0  0  0  0  0  0  0  0  0  0
    9.0120   45.4317   33.6710 H   0  0  0  0  0  0  0  0  0  0  0  0
   10.7258   46.9688   33.1211 H   0  0  0  0  0  0  0  0  0  0  0  0
   11.8903   45.7658   32.9464 H   0  0  0  0  0  0  0  0  0  0  0  0
    9.3414   43.8332   31.4753 H   0  0  0  0  0  0  0  0  0  0  0  0
   10.7225   44.8821   31.1547 H   0  0  0  0  0  0  0  0  0  0  0  0
    7.0063   44.7189   31.5852 H   0  0  0  0  0  0  0  0  0  0  0  0
   10.3467   47.1887   30.4126 H   0  0  0  0  0  0  0  0  0  0  0  0
    5.4584   46.3165   30.5114 H   0  0  0  0  0  0  0  0  0  0  0  0
    8.7915   48.7769   29.3493 H   0  0  0  0  0  0  0  0  0  0  0  0
    5.1927   49.4544   27.6834 H   0  0  0  0  0  0  0  0  0  0  0  0
    5.1422   46.4274   27.9813 H   0  0  0  0  0  0  0  0  0  0  0  0
    4.6238   47.3018   26.4740 H   0  0  0  0  0  0  0  0  0  0  0  0
    3.8181   47.6184   28.0508 H   0  0  0  0  0  0  0  0  0  0  0  0
    6.9332   50.7748   26.8742 H   0  0  0  0  0  0  0  0  0  0  0  0
    9.5510   46.7648   25.4834 H   0  0  0  0  0  0  0  0  0  0  0  0
   10.3532   51.0563   23.5848 H   0  0  0  0  0  0  0  0  0  0  0  0
   11.3253   51.1671   25.1286 H   0  0  0  0  0  0  0  0  0  0  0  0
    9.8291   40.7409   31.7624 H   0  0  0  0  0  0  0  0  0  0  0  0
   11.3954   41.5477   31.4742 H   0  0  0  0  0  0  0  0  0  0  0  0
   11.6982   39.5114   30.3499 H   0  0  0  0  0  0  0  0  0  0  0  0
   10.1116   38.2605   32.6660 H   0  0  0  0  0  0  0  0  0  0  0  0
   13.6766   37.4555   31.2267 H   0  0  0  0  0  0  0  0  0  0  0  0
    8.8961   38.6953   30.8871 H   0  0  0  0  0  0  0  0  0  0  0  0
   11.2791   36.3072   32.4921 H   0  0  0  0  0  0  0  0  0  0  0  0
   11.8828   36.9599   29.7589 H   0  0  0  0  0  0  0  0  0  0  0  0
   12.3300   38.3539   34.7445 H   0  0  0  0  0  0  0  0  0  0  0  0
   16.7561   34.1784   32.4622 H   0  0  0  0  0  0  0  0  0  0  0  0
   16.6348   34.5303   37.1416 H   0  0  0  0  0  0  0  0  0  0  0  0
   15.3532   35.7360   37.5141 H   0  0  0  0  0  0  0  0  0  0  0  0
  1  2  2  0
  1  3  1  0
  3  4  1  0
  4  5  1  0
  6  1  1  0
  7  6  1  0
  6  8  1  0
  8  9  1  0
  9 10  2  0
 11  9  1  0
 10 12  1  0
 13 11  2  0
 12 14  2  0
 14 13  1  0
 14 15  1  0
 15 16  1  0
 16 17  1  0
 16 18  1  0
 18 19  2  0
 20 18  1  0
 19 21  1  0
 22 20  2  0
 20 23  1  0
 21 24  1  0
 21 25  2  0
 25 22  1  0
 23 26  1  0
 23 27  2  0
 24 28  1  0
 25 29  1  0
 28 29  1  0
  4 30  2  0
  4 31  1  0
 32 31  1  0
 32 33  1  0
 33 34  1  0
 33 35  1  0
 34 36  1  0
 35 37  1  0
 35 38  1  0
 38 36  1  0
 36 39  1  0
 38 40  1  0
 41 39  1  0
 42 39  1  0
 43 41  2  0
 41 44  1  0
 45 42  2  0
 46 43  1  0
 44 47  2  0
 44 45  1  0
 48 46  2  0
 48 47  1  0
 47 49  1  0
  6 50  1  1
  7 51  1  0
  7 52  1  0
  8 53  1  0
  8 54  1  0
 10 55  1  0
 11 56  1  0
 12 57  1  0
 13 58  1  0
 16 59  1  6
 17 60  1  0
 17 61  1  0
 17 62  1  0
 19 63  1  0
 22 64  1  0
 28 65  1  0
 28 66  1  0
 32 67  1  0
 32 68  1  0
 33 69  1  0
 35 70  1  0
 36 71  1  0
 37 72  1  0
 38 73  1  0
 40 74  1  0
 42 75  1  0
 46 76  1  0
 49 77  1  0
 49 78  1  0
M  CHG  3   5  -1  23   1  26  -1
M  END
>  <EmbedRMS>  (118) 
0.08208555205

$$$$

     RDKit          3D

 78 83  0  0  0  0  0  0  0  0999 V2000
   10.2805   43.7663   33.8249 C   0  0  0  0  0  0  0  0  0  0  0  0
   11.4112   43.5919   34.3667 O   0  0  0  0  0  0  0  0  0  0  0  0
    9.3622   42.7247   33.7342 O   0  0  0  0  0  0  0  0  0  0  0  0
    9.8905   41.2264   34.2937 P   0  0  0  0  0  0  0  0  0  0  0  0
   10.3731   41.4564   35.8832 O   0  0  0  0  0  0  0  0  0  0  0  0
    9.9459   45.0735   33.2112 C   0  0  1  0  0  0  0  0  0  0  0  0
   11.0267   46.0291   33.4705 N   0  0  0  0  0  0  0  0  0  0  0  0
    9.7534   44.8538   31.6950 C   0  0  0  0  0  0  0  0  0  0  0  0
    8.7954   45.8412   31.0849 C   0  0  0  0  0  0  0  0  0  0  0  0
    7.4086   45.6007   31.1011 C   0  0  0  0  0  0  0  0  0  0  0  0
    9.2829   46.9880   30.4402 C   0  0  0  0  0  0  0  0  0  0  0  0
    6.5282   46.5011   30.4857 C   0  0  0  0  0  0  0  0  0  0  0  0
    8.4025   47.8894   29.8308 C   0  0  0  0  0  0  0  0  0  0  0  0
    7.0137   47.6500   29.8465 C   0  0  0  0  0  0  0  0  0  0  0  0
    6.0870   48.5131   29.2383 O   0  0  0  0  0  0  0  0  0  0  0  0
    6.4171   49.6900   28.4975 C   0  0  2  0  0  0  0  0  0  0  0  0
    5.1542   50.5093   28.2341 C   0  0  0  0  0  0  0  0  0  0  0  0
    7.1301   49.3723   27.1910 C   0  0  0  0  0  0  0  0  0  0  0  0
    8.0763   50.3177   26.7262 C   0  0  0  0  0  0  0  0  0  0  0  0
    6.9278   48.1599   26.4435 C   0  0  0  0  0  0  0  0  0  0  0  0
    8.7983   50.0293   25.5763 C   0  0  0  0  0  0  0  0  0  0  0  0
    7.7049   47.9164   25.2875 C   0  0  0  0  0  0  0  0  0  0  0  0
    5.9622   47.1717   26.8356 N   0  0  0  0  0  0  0  0  0  0  0  0
    9.7671   50.7944   24.9558 O   0  0  0  0  0  0  0  0  0  0  0  0
    8.6233   48.8779   24.8897 C   0  0  0  0  0  0  0  0  0  0  0  0
    4.6614   47.5343   27.0929 O   0  0  0  0  0  0  0  0  0  0  0  0
    6.2403   45.9585   26.7395 O   0  0  0  0  0  0  0  0  0  0  0  0
   10.2287   50.0746   23.8046 C   0  0  0  0  0  0  0  0  0  0  0  0
    9.4720   48.8564   23.7997 O   0  0  0  0  0  0  0  0  0  0  0  0
    8.8129   40.1841   34.2124 O   0  0  0  0  0  0  0  0  0  0  0  0
   11.2419   40.7944   33.3695 O   0  0  0  0  0  0  0  0  0  0  0  0
   10.9186   40.6911   31.9969 C   0  0  0  0  0  0  0  0  0  0  0  0
   11.5172   39.3814   31.4407 C   0  0  0  0  0  0  0  0  0  0  0  0
   12.7492   39.0856   32.0729 O   0  0  0  0  0  0  0  0  0  0  0  0
   10.6023   38.1908   31.6666 C   0  0  0  0  0  0  0  0  0  0  0  0
   12.9319   37.6781   32.0281 C   0  0  0  0  0  0  0  0  0  0  0  0
    9.6391   38.0797   30.6453 O   0  0  0  0  0  0  0  0  0  0  0  0
   11.5715   37.0166   31.7056 C   0  0  0  0  0  0  0  0  0  0  0  0
   13.4847   37.2122   33.3235 N   0  0  0  0  0  0  0  0  0  0  0  0
   11.6187   36.3384   30.4694 O   0  0  0  0  0  0  0  0  0  0  0  0
   14.4801   36.3321   33.5724 C   0  0  0  0  0  0  0  0  0  0  0  0
   13.1137   37.6276   34.5687 C   0  0  0  0  0  0  0  0  0  0  0  0
   15.2073   35.6153   32.6737 N   0  0  0  0  0  0  0  0  0  0  0  0
   14.6759   36.2308   34.9179 C   0  0  0  0  0  0  0  0  0  0  0  0
   13.8216   37.0452   35.5780 N   0  0  0  0  0  0  0  0  0  0  0  0
   16.1639   34.7602   33.1545 C   0  0  0  0  0  0  0  0  0  0  0  0
   15.6526   35.3508   35.4129 C   0  0  0  0  0  0  0  0  0  0  0  0
   16.3794   34.6317   34.5040 N   0  0  0  0  0  0  0  0  0  0  0  0
   15.8999   35.1934   36.8088 N   0  0  0  0  0  0  0  0  0  0  0  0
    8.9996   45.4380   33.6724 H   0  0  0  0  0  0  0  0  0  0  0  0
   11.0504   46.2276   34.4979 H   0  0  0  0  0  0  0  0  0  0  0  0
   10.7765   46.9368   33.0156 H   0  0  0  0  0  0  0  0  0  0  0  0
   10.7403   44.9069   31.1832 H   0  0  0  0  0  0  0  0  0  0  0  0
    9.3633   43.8352   31.4715 H   0  0  0  0  0  0  0  0  0  0  0  0
    7.0130   44.7161   31.5848 H   0  0  0  0  0  0  0  0  0  0  0  0
   10.3472   47.1866   30.4070 H   0  0  0  0  0  0  0  0  0  0  0  0
    5.4641   46.3025   30.5018 H   0  0  0  0  0  0  0  0  0  0  0  0
    8.8152   48.7632   29.3471 H   0  0  0  0  0  0  0  0  0  0  0  0
    7.0725   50.3222   29.1380 H   0  0  0  0  0  0  0  0  0  0  0  0
    4.6348   50.7167   29.1937 H   0  0  0  0  0  0  0  0  0  0  0  0
    5.4216   51.4802   27.7647 H   0  0  0  0  0  0  0  0  0  0  0  0
    4.4560   49.9732   27.5611 H   0  0  0  0  0  0  0  0  0  0  0  0
    8.2553   51.2454   27.2556 H   0  0  0  0  0  0  0  0  0  0  0  0
    7.5819   47.0111   24.7069 H   0  0  0  0  0  0  0  0  0  0  0  0
   11.3122   49.8522   23.8996 H   0  0  0  0  0  0  0  0  0  0  0  0
   10.0249   50.6559   22.8809 H   0  0  0  0  0  0  0  0  0  0  0  0
   11.3967   41.5460   31.4725 H   0  0  0  0  0  0  0  0  0  0  0  0
    9.8299   40.7410   31.7610 H   0  0  0  0  0  0  0  0  0  0  0  0
   11.6976   39.5066   30.3481 H   0  0  0  0  0  0  0  0  0  0  0  0
   10.1077   38.2647   32.6646 H   0  0  0  0  0  0  0  0  0  0  0  0
   13.6621   37.4468   31.2209 H   0  0  0  0  0  0  0  0  0  0  0  0
    8.8974   38.6943   30.8833 H   0  0  0  0  0  0  0  0  0  0  0  0
   11.2805   36.3074   32.5171 H   0  0  0  0  0  0  0  0  0  0  0  0
   10.8492   35.7110   30.4586 H   0  0  0  0  0  0  0  0  0  0  0  0
   12.3290   38.3524   34.7444 H   0  0  0  0  0  0  0  0  0  0  0  0
   16.7559   34.1780   32.4618 H   0  0  0  0  0  0  0  0  0  0  0  0
   15.3531   35.7363   37.5136 H   0  0  0  0  0  0  0  0  0  0  0  0
   16.6344   34.5301   37.1415 H   0  0  0  0  0  0  0  0  0  0  0  0
  1  2  2  0
  1  3  1  0
  3  4  1  0
  4  5  1  0
  6  1  1  0
  7  6  1  0
  6  8  1  0
  8  9  1  0
  9 10  2  0
 11  9  1  0
 10 12  1  0
 13 11  2  0
 12 14  2  0
 14 13  1  0
 14 15  1  0
 15 16  1  0
 16 17  1  0
 16 18  1  0
 18 19  2  0
 20 18  1  0
 19 21  1  0
 22 20  2  0
 20 23  1  0
 21 24  1  0
 21 25  2  0
 25 22  1  0
 23 26  1  0
 23 27  2  0
 24 28  1  0
 25 29  1  0
 28 29  1  0
  4 30  2  0
  4 31  1  0
 32 31  1  0
 32 33  1  0
 33 34  1  0
 33 35  1  0
 34 36  1  0
 35 37  1  0
 35 38  1  0
 38 36  1  0
 36 39  1  0
 38 40  1  0
 41 39  1  0
 42 39  1  0
 43 41  2  0
 41 44  1  0
 45 42  2  0
 46 43  1  0
 44 47  2  0
 44 45  1  0
 48 46  2  0
 48 47  1  0
 47 49  1  0
  6 50  1  1
  7 51  1  0
  7 52  1  0
  8 53  1  0
  8 54  1  0
 10 55  1  0
 11 56  1  0
 12 57  1  0
 13 58  1  0
 16 59  1  1
 17 60  1  0
 17 61  1  0
 17 62  1  0
 19 63  1  0
 22 64  1  0
 28 65  1  0
 28 66  1  0
 32 67  1  0
 32 68  1  0
 33 69  1  0
 35 70  1  0
 36 71  1  0
 37 72  1  0
 38 73  1  0
 40 74  1  0
 42 75  1  0
 46 76  1  0
 49 77  1  0
 49 78  1  0
M  CHG  3   5  -1  23   1  26  -1
M  END
>  <EmbedRMS>  (119) 
0.0827791933338

$$$$

     RDKit          3D

 78 83  0  0  0  0  0  0  0  0999 V2000
   10.2838   43.7627   33.8277 C   0  0  0  0  0  0  0  0  0  0  0  0
   11.4103   43.5863   34.3766 O   0  0  0  0  0  0  0  0  0  0  0  0
    9.3628   42.7238   33.7357 O   0  0  0  0  0  0  0  0  0  0  0  0
    9.8891   41.2252   34.2949 P   0  0  0  0  0  0  0  0  0  0  0  0
   10.3724   41.4548   35.8843 O   0  0  0  0  0  0  0  0  0  0  0  0
    9.9548   45.0700   33.2064 C   0  0  1  0  0  0  0  0  0  0  0  0
   11.0199   46.0480   33.4567 N   0  0  0  0  0  0  0  0  0  0  0  0
    9.7500   44.8508   31.6924 C   0  0  0  0  0  0  0  0  0  0  0  0
    8.7942   45.8417   31.0870 C   0  0  0  0  0  0  0  0  0  0  0  0
    7.4073   45.6012   31.1002 C   0  0  0  0  0  0  0  0  0  0  0  0
    9.2832   46.9891   30.4450 C   0  0  0  0  0  0  0  0  0  0  0  0
    6.5280   46.5022   30.4843 C   0  0  0  0  0  0  0  0  0  0  0  0
    8.4035   47.8900   29.8331 C   0  0  0  0  0  0  0  0  0  0  0  0
    7.0149   47.6514   29.8465 C   0  0  0  0  0  0  0  0  0  0  0  0
    6.0896   48.5181   29.2420 O   0  0  0  0  0  0  0  0  0  0  0  0
    6.4178   49.7052   28.5139 C   0  0  2  0  0  0  0  0  0  0  0  0
    5.1305   50.4719   28.2206 C   0  0  0  0  0  0  0  0  0  0  0  0
    7.1206   49.3716   27.2081 C   0  0  0  0  0  0  0  0  0  0  0  0
    6.7068   48.2269   26.4822 C   0  0  0  0  0  0  0  0  0  0  0  0
    8.1153   50.2350   26.6431 C   0  0  0  0  0  0  0  0  0  0  0  0
    7.2989   47.9707   25.2524 C   0  0  0  0  0  0  0  0  0  0  0  0
    8.6724   49.9319   25.3806 C   0  0  0  0  0  0  0  0  0  0  0  0
    8.5499   51.4224   27.3191 N   0  0  0  0  0  0  0  0  0  0  0  0
    7.0591   46.9221   24.3854 O   0  0  0  0  0  0  0  0  0  0  0  0
    8.2399   48.7872   24.7247 C   0  0  0  0  0  0  0  0  0  0  0  0
    9.1652   51.3257   28.5453 O   0  0  0  0  0  0  0  0  0  0  0  0
    8.6258   52.4979   26.6904 O   0  0  0  0  0  0  0  0  0  0  0  0
    7.9073   47.0912   23.2413 C   0  0  0  0  0  0  0  0  0  0  0  0
    8.6438   48.2946   23.4987 O   0  0  0  0  0  0  0  0  0  0  0  0
    8.8113   40.1834   34.2132 O   0  0  0  0  0  0  0  0  0  0  0  0
   11.2398   40.7938   33.3702 O   0  0  0  0  0  0  0  0  0  0  0  0
   10.9144   40.6912   31.9983 C   0  0  0  0  0  0  0  0  0  0  0  0
   11.5270   39.3911   31.4385 C   0  0  0  0  0  0  0  0  0  0  0  0
   12.7520   39.0910   32.0835 O   0  0  0  0  0  0  0  0  0  0  0  0
   10.6113   38.1931   31.6451 C   0  0  0  0  0  0  0  0  0  0  0  0
   12.9413   37.6837   32.0297 C   0  0  0  0  0  0  0  0  0  0  0  0
    9.6064   38.0877   30.6599 O   0  0  0  0  0  0  0  0  0  0  0  0
   11.5822   37.0197   31.6876 C   0  0  0  0  0  0  0  0  0  0  0  0
   13.4840   37.2104   33.3254 N   0  0  0  0  0  0  0  0  0  0  0  0
   11.6179   36.3071   30.4690 O   0  0  0  0  0  0  0  0  0  0  0  0
   14.4797   36.3309   33.5738 C   0  0  0  0  0  0  0  0  0  0  0  0
   13.1136   37.6269   34.5702 C   0  0  0  0  0  0  0  0  0  0  0  0
   15.2074   35.6152   32.6747 N   0  0  0  0  0  0  0  0  0  0  0  0
   14.6756   36.2298   34.9190 C   0  0  0  0  0  0  0  0  0  0  0  0
   13.8217   37.0446   35.5793 N   0  0  0  0  0  0  0  0  0  0  0  0
   16.1643   34.7603   33.1551 C   0  0  0  0  0  0  0  0  0  0  0  0
   15.6528   35.3503   35.4136 C   0  0  0  0  0  0  0  0  0  0  0  0
   16.3798   34.6316   34.5046 N   0  0  0  0  0  0  0  0  0  0  0  0
   15.9004   35.1931   36.8094 N   0  0  0  0  0  0  0  0  0  0  0  0
    9.0099   45.4350   33.6671 H   0  0  0  0  0  0  0  0  0  0  0  0
   11.1136   46.1992   34.4880 H   0  0  0  0  0  0  0  0  0  0  0  0
   11.9348   45.6932   33.0922 H   0  0  0  0  0  0  0  0  0  0  0  0
   10.7303   44.8921   31.1674 H   0  0  0  0  0  0  0  0  0  0  0  0
    9.3507   43.8343   31.4763 H   0  0  0  0  0  0  0  0  0  0  0  0
    7.0107   44.7161   31.5821 H   0  0  0  0  0  0  0  0  0  0  0  0
   10.3475   47.1880   30.4163 H   0  0  0  0  0  0  0  0  0  0  0  0
    5.4637   46.3045   30.5005 H   0  0  0  0  0  0  0  0  0  0  0  0
    8.8160   48.7634   29.3510 H   0  0  0  0  0  0  0  0  0  0  0  0
    7.0399   50.3502   29.1643 H   0  0  0  0  0  0  0  0  0  0  0  0
    5.3593   51.4147   27.6787 H   0  0  0  0  0  0  0  0  0  0  0  0
    4.6206   50.7284   29.1734 H   0  0  0  0  0  0  0  0  0  0  0  0
    4.4414   49.8557   27.6037 H   0  0  0  0  0  0  0  0  0  0  0  0
    5.9385   47.5631   26.8576 H   0  0  0  0  0  0  0  0  0  0  0  0
    9.4248   50.5674   24.9312 H   0  0  0  0  0  0  0  0  0  0  0  0
    8.6014   46.2299   23.1472 H   0  0  0  0  0  0  0  0  0  0  0  0
    7.2946   47.2060   22.3227 H   0  0  0  0  0  0  0  0  0  0  0  0
    9.8235   40.7202   31.7651 H   0  0  0  0  0  0  0  0  0  0  0  0
   11.3780   41.5548   31.4750 H   0  0  0  0  0  0  0  0  0  0  0  0
   11.7311   39.5363   30.3531 H   0  0  0  0  0  0  0  0  0  0  0  0
   10.1203   38.2695   32.6410 H   0  0  0  0  0  0  0  0  0  0  0  0
   13.6850   37.4638   31.2321 H   0  0  0  0  0  0  0  0  0  0  0  0
   10.0250   38.1792   29.7654 H   0  0  0  0  0  0  0  0  0  0  0  0
   11.2757   36.3135   32.4907 H   0  0  0  0  0  0  0  0  0  0  0  0
   11.9838   36.9110   29.7708 H   0  0  0  0  0  0  0  0  0  0  0  0
   12.3307   38.3536   34.7457 H   0  0  0  0  0  0  0  0  0  0  0  0
   16.7566   34.1787   32.4623 H   0  0  0  0  0  0  0  0  0  0  0  0
   16.6353   34.5301   37.1419 H   0  0  0  0  0  0  0  0  0  0  0  0
   15.3535   35.7355   37.5144 H   0  0  0  0  0  0  0  0  0  0  0  0
  1  2  2  0
  1  3  1  0
  3  4  1  0
  4  5  1  0
  6  1  1  0
  7  6  1  0
  6  8  1  0
  8  9  1  0
  9 10  2  0
 11  9  1  0
 10 12  1  0
 13 11  2  0
 12 14  2  0
 14 13  1  0
 14 15  1  0
 15 16  1  0
 16 17  1  0
 16 18  1  0
 18 19  2  0
 20 18  1  0
 19 21  1  0
 22 20  2  0
 20 23  1  0
 21 24  1  0
 21 25  2  0
 25 22  1  0
 23 26  1  0
 23 27  2  0
 24 28  1  0
 25 29  1  0
 28 29  1  0
  4 30  2  0
  4 31  1  0
 32 31  1  0
 32 33  1  0
 33 34  1  0
 33 35  1  0
 34 36  1  0
 35 37  1  0
 35 38  1  0
 38 36  1  0
 36 39  1  0
 38 40  1  0
 41 39  1  0
 42 39  1  0
 43 41  2  0
 41 44  1  0
 45 42  2  0
 46 43  1  0
 44 47  2  0
 44 45  1  0
 48 46  2  0
 48 47  1  0
 47 49  1  0
  6 50  1  1
  7 51  1  0
  7 52  1  0
  8 53  1  0
  8 54  1  0
 10 55  1  0
 11 56  1  0
 12 57  1  0
 13 58  1  0
 16 59  1  1
 17 60  1  0
 17 61  1  0
 17 62  1  0
 19 63  1  0
 22 64  1  0
 28 65  1  0
 28 66  1  0
 32 67  1  0
 32 68  1  0
 33 69  1  0
 35 70  1  0
 36 71  1  0
 37 72  1  0
 38 73  1  0
 40 74  1  0
 42 75  1  0
 46 76  1  0
 49 77  1  0
 49 78  1  0
M  CHG  3   5  -1  23   1  26  -1
M  END
>  <EmbedRMS>  (120) 
0.0817466245305

$$$$

     RDKit          3D

 78 83  0  0  0  0  0  0  0  0999 V2000
   10.2836   43.7661   33.8257 C   0  0  0  0  0  0  0  0  0  0  0  0
   11.4103   43.5930   34.3754 O   0  0  0  0  0  0  0  0  0  0  0  0
    9.3641   42.7252   33.7347 O   0  0  0  0  0  0  0  0  0  0  0  0
    9.8908   41.2264   34.2939 P   0  0  0  0  0  0  0  0  0  0  0  0
   10.3732   41.4558   35.8836 O   0  0  0  0  0  0  0  0  0  0  0  0
    9.9547   45.0694   33.2036 C   0  0  1  0  0  0  0  0  0  0  0  0
   11.0273   46.0321   33.4757 N   0  0  0  0  0  0  0  0  0  0  0  0
    9.7465   44.8480   31.6878 C   0  0  0  0  0  0  0  0  0  0  0  0
    8.7923   45.8408   31.0847 C   0  0  0  0  0  0  0  0  0  0  0  0
    7.4058   45.6014   31.0989 C   0  0  0  0  0  0  0  0  0  0  0  0
    9.2820   46.9875   30.4424 C   0  0  0  0  0  0  0  0  0  0  0  0
    6.5273   46.5029   30.4835 C   0  0  0  0  0  0  0  0  0  0  0  0
    8.4034   47.8898   29.8310 C   0  0  0  0  0  0  0  0  0  0  0  0
    7.0132   47.6539   29.8479 C   0  0  0  0  0  0  0  0  0  0  0  0
    6.0820   48.5161   29.2449 O   0  0  0  0  0  0  0  0  0  0  0  0
    6.3754   49.7622   28.6057 C   0  0  2  0  0  0  0  0  0  0  0  0
    6.6328   50.8301   29.6806 C   0  0  0  0  0  0  0  0  0  0  0  0
    5.2375   50.0857   27.6388 C   0  0  0  0  0  0  0  0  0  0  0  0
    4.5058   51.3031   27.7319 C   0  0  0  0  0  0  0  0  0  0  0  0
    4.8592   49.1315   26.6307 C   0  0  0  0  0  0  0  0  0  0  0  0
    3.4464   51.5147   26.8598 C   0  0  0  0  0  0  0  0  0  0  0  0
    3.7607   49.4005   25.7822 C   0  0  0  0  0  0  0  0  0  0  0  0
    5.5598   47.8861   26.4678 N   0  0  0  0  0  0  0  0  0  0  0  0
    2.6085   52.6106   26.7788 O   0  0  0  0  0  0  0  0  0  0  0  0
    3.0879   50.6035   25.9291 C   0  0  0  0  0  0  0  0  0  0  0  0
    6.9336   47.8594   26.4110 O   0  0  0  0  0  0  0  0  0  0  0  0
    4.9272   46.8493   26.1788 O   0  0  0  0  0  0  0  0  0  0  0  0
    1.6638   52.3689   25.7274 C   0  0  0  0  0  0  0  0  0  0  0  0
    2.0058   51.0756   25.2113 O   0  0  0  0  0  0  0  0  0  0  0  0
    8.8127   40.1847   34.2122 O   0  0  0  0  0  0  0  0  0  0  0  0
   11.2421   40.7941   33.3697 O   0  0  0  0  0  0  0  0  0  0  0  0
   10.9187   40.6911   31.9971 C   0  0  0  0  0  0  0  0  0  0  0  0
   11.5172   39.3815   31.4407 C   0  0  0  0  0  0  0  0  0  0  0  0
   12.7493   39.0856   32.0728 O   0  0  0  0  0  0  0  0  0  0  0  0
   10.6023   38.1908   31.6665 C   0  0  0  0  0  0  0  0  0  0  0  0
   12.9319   37.6781   32.0281 C   0  0  0  0  0  0  0  0  0  0  0  0
    9.6392   38.0798   30.6452 O   0  0  0  0  0  0  0  0  0  0  0  0
   11.5715   37.0165   31.7056 C   0  0  0  0  0  0  0  0  0  0  0  0
   13.4847   37.2121   33.3235 N   0  0  0  0  0  0  0  0  0  0  0  0
   11.6187   36.3384   30.4695 O   0  0  0  0  0  0  0  0  0  0  0  0
   14.4801   36.3321   33.5724 C   0  0  0  0  0  0  0  0  0  0  0  0
   13.1137   37.6275   34.5687 C   0  0  0  0  0  0  0  0  0  0  0  0
   15.2073   35.6153   32.6738 N   0  0  0  0  0  0  0  0  0  0  0  0
   14.6759   36.2308   34.9179 C   0  0  0  0  0  0  0  0  0  0  0  0
   13.8216   37.0452   35.5781 N   0  0  0  0  0  0  0  0  0  0  0  0
   16.1640   34.7602   33.1546 C   0  0  0  0  0  0  0  0  0  0  0  0
   15.6526   35.3508   35.4129 C   0  0  0  0  0  0  0  0  0  0  0  0
   16.3794   34.6317   34.5041 N   0  0  0  0  0  0  0  0  0  0  0  0
   15.8999   35.1935   36.8088 N   0  0  0  0  0  0  0  0  0  0  0  0
    9.0121   45.4316   33.6716 H   0  0  0  0  0  0  0  0  0  0  0  0
   11.8906   45.7658   32.9469 H   0  0  0  0  0  0  0  0  0  0  0  0
   10.7259   46.9687   33.1213 H   0  0  0  0  0  0  0  0  0  0  0  0
    9.3414   43.8329   31.4764 H   0  0  0  0  0  0  0  0  0  0  0  0
   10.7229   44.8813   31.1557 H   0  0  0  0  0  0  0  0  0  0  0  0
    7.0085   44.7163   31.5804 H   0  0  0  0  0  0  0  0  0  0  0  0
   10.3468   47.1838   30.4112 H   0  0  0  0  0  0  0  0  0  0  0  0
    5.4629   46.3052   30.5000 H   0  0  0  0  0  0  0  0  0  0  0  0
    8.8224   48.7599   29.3478 H   0  0  0  0  0  0  0  0  0  0  0  0
    7.2980   49.6784   27.9966 H   0  0  0  0  0  0  0  0  0  0  0  0
    7.4666   50.5194   30.3428 H   0  0  0  0  0  0  0  0  0  0  0  0
    5.7307   50.9709   30.3134 H   0  0  0  0  0  0  0  0  0  0  0  0
    6.9227   51.7931   29.2093 H   0  0  0  0  0  0  0  0  0  0  0  0
    4.7299   52.0703   28.4579 H   0  0  0  0  0  0  0  0  0  0  0  0
    3.4522   48.6969   25.0196 H   0  0  0  0  0  0  0  0  0  0  0  0
    0.6308   52.3584   26.1340 H   0  0  0  0  0  0  0  0  0  0  0  0
    1.7675   53.1381   24.9335 H   0  0  0  0  0  0  0  0  0  0  0  0
    9.8299   40.7410   31.7613 H   0  0  0  0  0  0  0  0  0  0  0  0
   11.3968   41.5460   31.4729 H   0  0  0  0  0  0  0  0  0  0  0  0
   11.6975   39.5067   30.3481 H   0  0  0  0  0  0  0  0  0  0  0  0
   10.1076   38.2648   32.6645 H   0  0  0  0  0  0  0  0  0  0  0  0
   13.6621   37.4467   31.2209 H   0  0  0  0  0  0  0  0  0  0  0  0
    8.8975   38.6944   30.8831 H   0  0  0  0  0  0  0  0  0  0  0  0
   11.2806   36.3073   32.5170 H   0  0  0  0  0  0  0  0  0  0  0  0
   10.8492   35.7110   30.4586 H   0  0  0  0  0  0  0  0  0  0  0  0
   12.3290   38.3524   34.7444 H   0  0  0  0  0  0  0  0  0  0  0  0
   16.7559   34.1780   32.4619 H   0  0  0  0  0  0  0  0  0  0  0  0
   16.6344   34.5301   37.1414 H   0  0  0  0  0  0  0  0  0  0  0  0
   15.3532   35.7362   37.5137 H   0  0  0  0  0  0  0  0  0  0  0  0
  1  2  2  0
  1  3  1  0
  3  4  1  0
  4  5  1  0
  6  1  1  0
  7  6  1  0
  6  8  1  0
  8  9  1  0
  9 10  2  0
 11  9  1  0
 10 12  1  0
 13 11  2  0
 12 14  2  0
 14 13  1  0
 14 15  1  0
 15 16  1  0
 16 17  1  0
 16 18  1  0
 18 19  2  0
 20 18  1  0
 19 21  1  0
 22 20  2  0
 20 23  1  0
 21 24  1  0
 21 25  2  0
 25 22  1  0
 23 26  1  0
 23 27  2  0
 24 28  1  0
 25 29  1  0
 28 29  1  0
  4 30  2  0
  4 31  1  0
 32 31  1  0
 32 33  1  0
 33 34  1  0
 33 35  1  0
 34 36  1  0
 35 37  1  0
 35 38  1  0
 38 36  1  0
 36 39  1  0
 38 40  1  0
 41 39  1  0
 42 39  1  0
 43 41  2  0
 41 44  1  0
 45 42  2  0
 46 43  1  0
 44 47  2  0
 44 45  1  0
 48 46  2  0
 48 47  1  0
 47 49  1  0
  6 50  1  1
  7 51  1  0
  7 52  1  0
  8 53  1  0
  8 54  1  0
 10 55  1  0
 11 56  1  0
 12 57  1  0
 13 58  1  0
 16 59  1  6
 17 60  1  0
 17 61  1  0
 17 62  1  0
 19 63  1  0
 22 64  1  0
 28 65  1  0
 28 66  1  0
 32 67  1  0
 32 68  1  0
 33 69  1  0
 35 70  1  0
 36 71  1  0
 37 72  1  0
 38 73  1  0
 40 74  1  0
 42 75  1  0
 46 76  1  0
 49 77  1  0
 49 78  1  0
M  CHG  3   5  -1  23   1  26  -1
M  END
>  <EmbedRMS>  (121) 
0.0829337763436

$$$$

     RDKit          3D

 78 83  0  0  0  0  0  0  0  0999 V2000
   10.2839   43.7626   33.8275 C   0  0  0  0  0  0  0  0  0  0  0  0
   11.4103   43.5863   34.3767 O   0  0  0  0  0  0  0  0  0  0  0  0
    9.3633   42.7234   33.7352 O   0  0  0  0  0  0  0  0  0  0  0  0
    9.8898   41.2247   34.2940 P   0  0  0  0  0  0  0  0  0  0  0  0
   10.3724   41.4544   35.8836 O   0  0  0  0  0  0  0  0  0  0  0  0
    9.9549   45.0699   33.2063 C   0  0  1  0  0  0  0  0  0  0  0  0
   11.0198   46.0481   33.4571 N   0  0  0  0  0  0  0  0  0  0  0  0
    9.7507   44.8510   31.6921 C   0  0  0  0  0  0  0  0  0  0  0  0
    8.7946   45.8416   31.0866 C   0  0  0  0  0  0  0  0  0  0  0  0
    7.4079   45.6007   31.1005 C   0  0  0  0  0  0  0  0  0  0  0  0
    9.2827   46.9891   30.4449 C   0  0  0  0  0  0  0  0  0  0  0  0
    6.5254   46.5002   30.4861 C   0  0  0  0  0  0  0  0  0  0  0  0
    8.4009   47.8883   29.8341 C   0  0  0  0  0  0  0  0  0  0  0  0
    7.0191   47.6552   29.8442 C   0  0  0  0  0  0  0  0  0  0  0  0
    6.1868   48.5966   29.2157 O   0  0  0  0  0  0  0  0  0  0  0  0
    4.7729   48.4780   29.0273 C   0  0  2  0  0  0  0  0  0  0  0  0
    4.4716   47.4632   27.9188 C   0  0  0  0  0  0  0  0  0  0  0  0
    4.2065   49.8333   28.6471 C   0  0  0  0  0  0  0  0  0  0  0  0
    4.9063   50.6161   27.6952 C   0  0  0  0  0  0  0  0  0  0  0  0
    3.0118   50.3600   29.2444 C   0  0  0  0  0  0  0  0  0  0  0  0
    4.4315   51.8877   27.4028 C   0  0  0  0  0  0  0  0  0  0  0  0
    2.5878   51.6687   28.9201 C   0  0  0  0  0  0  0  0  0  0  0  0
    2.2117   49.5856   30.1516 N   0  0  0  0  0  0  0  0  0  0  0  0
    4.9540   52.8191   26.5262 O   0  0  0  0  0  0  0  0  0  0  0  0
    3.3249   52.3939   27.9936 C   0  0  0  0  0  0  0  0  0  0  0  0
    1.5713   50.2075   31.1986 O   0  0  0  0  0  0  0  0  0  0  0  0
    1.8971   48.4118   29.8665 O   0  0  0  0  0  0  0  0  0  0  0  0
    4.1197   53.9847   26.5704 C   0  0  0  0  0  0  0  0  0  0  0  0
    3.0914   53.6705   27.5195 O   0  0  0  0  0  0  0  0  0  0  0  0
    8.8118   40.1831   34.2121 O   0  0  0  0  0  0  0  0  0  0  0  0
   11.2413   40.7934   33.3696 O   0  0  0  0  0  0  0  0  0  0  0  0
   10.9179   40.6902   31.9971 C   0  0  0  0  0  0  0  0  0  0  0  0
   11.5181   39.3813   31.4408 C   0  0  0  0  0  0  0  0  0  0  0  0
   12.7498   39.0870   32.0745 O   0  0  0  0  0  0  0  0  0  0  0  0
   10.6045   38.1891   31.6655 C   0  0  0  0  0  0  0  0  0  0  0  0
   12.9344   37.6801   32.0290 C   0  0  0  0  0  0  0  0  0  0  0  0
    9.6418   38.0758   30.6441 O   0  0  0  0  0  0  0  0  0  0  0  0
   11.5741   37.0169   31.7045 C   0  0  0  0  0  0  0  0  0  0  0  0
   13.4851   37.2125   33.3241 N   0  0  0  0  0  0  0  0  0  0  0  0
   11.6079   36.3407   30.4679 O   0  0  0  0  0  0  0  0  0  0  0  0
   14.4801   36.3321   33.5727 C   0  0  0  0  0  0  0  0  0  0  0  0
   13.1140   37.6277   34.5692 C   0  0  0  0  0  0  0  0  0  0  0  0
   15.2073   35.6155   32.6739 N   0  0  0  0  0  0  0  0  0  0  0  0
   14.6758   36.2306   34.9182 C   0  0  0  0  0  0  0  0  0  0  0  0
   13.8217   37.0451   35.5785 N   0  0  0  0  0  0  0  0  0  0  0  0
   16.1639   34.7602   33.1546 C   0  0  0  0  0  0  0  0  0  0  0  0
   15.6526   35.3506   35.4130 C   0  0  0  0  0  0  0  0  0  0  0  0
   16.3794   34.6316   34.5041 N   0  0  0  0  0  0  0  0  0  0  0  0
   15.9001   35.1933   36.8089 N   0  0  0  0  0  0  0  0  0  0  0  0
    9.0098   45.4347   33.6667 H   0  0  0  0  0  0  0  0  0  0  0  0
   11.9349   45.6934   33.0929 H   0  0  0  0  0  0  0  0  0  0  0  0
   11.1131   46.1992   34.4884 H   0  0  0  0  0  0  0  0  0  0  0  0
   10.7311   44.8930   31.1676 H   0  0  0  0  0  0  0  0  0  0  0  0
    9.3520   43.8343   31.4757 H   0  0  0  0  0  0  0  0  0  0  0  0
    7.0130   44.7158   31.5845 H   0  0  0  0  0  0  0  0  0  0  0  0
   10.3466   47.1897   30.4157 H   0  0  0  0  0  0  0  0  0  0  0  0
    5.4680   46.2834   30.5233 H   0  0  0  0  0  0  0  0  0  0  0  0
    8.7941   48.7709   29.3456 H   0  0  0  0  0  0  0  0  0  0  0  0
    4.3190   48.1376   29.9787 H   0  0  0  0  0  0  0  0  0  0  0  0
    3.3769   47.3996   27.7424 H   0  0  0  0  0  0  0  0  0  0  0  0
    4.9716   47.7613   26.9726 H   0  0  0  0  0  0  0  0  0  0  0  0
    4.8349   46.4547   28.2025 H   0  0  0  0  0  0  0  0  0  0  0  0
    5.8035   50.2512   27.2112 H   0  0  0  0  0  0  0  0  0  0  0  0
    1.6942   52.0962   29.3564 H   0  0  0  0  0  0  0  0  0  0  0  0
    3.6739   54.1760   25.5718 H   0  0  0  0  0  0  0  0  0  0  0  0
    4.7046   54.8628   26.9158 H   0  0  0  0  0  0  0  0  0  0  0  0
   11.3949   41.5457   31.4728 H   0  0  0  0  0  0  0  0  0  0  0  0
    9.8290   40.7386   31.7614 H   0  0  0  0  0  0  0  0  0  0  0  0
   11.6994   39.5070   30.3483 H   0  0  0  0  0  0  0  0  0  0  0  0
   10.1090   38.2634   32.6632 H   0  0  0  0  0  0  0  0  0  0  0  0
   13.6662   37.4514   31.2224 H   0  0  0  0  0  0  0  0  0  0  0  0
    8.9010   38.6925   30.8793 H   0  0  0  0  0  0  0  0  0  0  0  0
   11.2650   36.3082   32.5086 H   0  0  0  0  0  0  0  0  0  0  0  0
   12.1372   35.5140   30.6163 H   0  0  0  0  0  0  0  0  0  0  0  0
   12.3297   38.3530   34.7449 H   0  0  0  0  0  0  0  0  0  0  0  0
   16.7558   34.1781   32.4619 H   0  0  0  0  0  0  0  0  0  0  0  0
   16.6346   34.5300   37.1414 H   0  0  0  0  0  0  0  0  0  0  0  0
   15.3533   35.7360   37.5138 H   0  0  0  0  0  0  0  0  0  0  0  0
  1  2  2  0
  1  3  1  0
  3  4  1  0
  4  5  1  0
  6  1  1  0
  7  6  1  0
  6  8  1  0
  8  9  1  0
  9 10  2  0
 11  9  1  0
 10 12  1  0
 13 11  2  0
 12 14  2  0
 14 13  1  0
 14 15  1  0
 15 16  1  0
 16 17  1  0
 16 18  1  0
 18 19  2  0
 20 18  1  0
 19 21  1  0
 22 20  2  0
 20 23  1  0
 21 24  1  0
 21 25  2  0
 25 22  1  0
 23 26  1  0
 23 27  2  0
 24 28  1  0
 25 29  1  0
 28 29  1  0
  4 30  2  0
  4 31  1  0
 32 31  1  0
 32 33  1  0
 33 34  1  0
 33 35  1  0
 34 36  1  0
 35 37  1  0
 35 38  1  0
 38 36  1  0
 36 39  1  0
 38 40  1  0
 41 39  1  0
 42 39  1  0
 43 41  2  0
 41 44  1  0
 45 42  2  0
 46 43  1  0
 44 47  2  0
 44 45  1  0
 48 46  2  0
 48 47  1  0
 47 49  1  0
  6 50  1  1
  7 51  1  0
  7 52  1  0
  8 53  1  0
  8 54  1  0
 10 55  1  0
 11 56  1  0
 12 57  1  0
 13 58  1  0
 16 59  1  1
 17 60  1  0
 17 61  1  0
 17 62  1  0
 19 63  1  0
 22 64  1  0
 28 65  1  0
 28 66  1  0
 32 67  1  0
 32 68  1  0
 33 69  1  0
 35 70  1  0
 36 71  1  0
 37 72  1  0
 38 73  1  0
 40 74  1  0
 42 75  1  0
 46 76  1  0
 49 77  1  0
 49 78  1  0
M  CHG  3   5  -1  23   1  26  -1
M  END
>  <EmbedRMS>  (122) 
0.0837079178296

$$$$

     RDKit          3D

 78 83  0  0  0  0  0  0  0  0999 V2000
   10.2844   43.7629   33.8274 C   0  0  0  0  0  0  0  0  0  0  0  0
   11.4105   43.5860   34.3770 O   0  0  0  0  0  0  0  0  0  0  0  0
    9.3632   42.7241   33.7345 O   0  0  0  0  0  0  0  0  0  0  0  0
    9.8898   41.2248   34.2930 P   0  0  0  0  0  0  0  0  0  0  0  0
   10.3723   41.4541   35.8825 O   0  0  0  0  0  0  0  0  0  0  0  0
    9.9557   45.0705   33.2073 C   0  0  1  0  0  0  0  0  0  0  0  0
   11.0199   46.0487   33.4604 N   0  0  0  0  0  0  0  0  0  0  0  0
    9.7535   44.8538   31.6925 C   0  0  0  0  0  0  0  0  0  0  0  0
    8.7960   45.8433   31.0885 C   0  0  0  0  0  0  0  0  0  0  0  0
    7.4094   45.6029   31.1079 C   0  0  0  0  0  0  0  0  0  0  0  0
    9.2826   46.9897   30.4420 C   0  0  0  0  0  0  0  0  0  0  0  0
    6.5277   46.5029   30.4945 C   0  0  0  0  0  0  0  0  0  0  0  0
    8.4011   47.8849   29.8234 C   0  0  0  0  0  0  0  0  0  0  0  0
    7.0121   47.6438   29.8424 C   0  0  0  0  0  0  0  0  0  0  0  0
    6.0847   48.4934   29.2179 O   0  0  0  0  0  0  0  0  0  0  0  0
    6.4127   49.5128   28.2719 C   0  0  2  0  0  0  0  0  0  0  0  0
    5.1838   50.3745   27.9814 C   0  0  0  0  0  0  0  0  0  0  0  0
    6.9767   48.9313   26.9829 C   0  0  0  0  0  0  0  0  0  0  0  0
    7.9599   49.6920   26.3055 C   0  0  0  0  0  0  0  0  0  0  0  0
    6.5942   47.6489   26.4511 C   0  0  0  0  0  0  0  0  0  0  0  0
    8.5373   49.1646   25.1576 C   0  0  0  0  0  0  0  0  0  0  0  0
    7.2293   47.1609   25.2862 C   0  0  0  0  0  0  0  0  0  0  0  0
    5.5943   46.8261   27.0744 N   0  0  0  0  0  0  0  0  0  0  0  0
    9.5085   49.7245   24.3493 O   0  0  0  0  0  0  0  0  0  0  0  0
    8.1900   47.9518   24.6721 C   0  0  0  0  0  0  0  0  0  0  0  0
    4.3627   47.3469   27.3941 O   0  0  0  0  0  0  0  0  0  0  0  0
    5.7573   45.5899   27.1363 O   0  0  0  0  0  0  0  0  0  0  0  0
    9.7861   48.8013   23.2872 C   0  0  0  0  0  0  0  0  0  0  0  0
    8.9218   47.6837   23.5311 O   0  0  0  0  0  0  0  0  0  0  0  0
    8.8112   40.1835   34.2111 O   0  0  0  0  0  0  0  0  0  0  0  0
   11.2399   40.7938   33.3668 O   0  0  0  0  0  0  0  0  0  0  0  0
   10.9140   40.6863   31.9951 C   0  0  0  0  0  0  0  0  0  0  0  0
   11.5184   39.3790   31.4397 C   0  0  0  0  0  0  0  0  0  0  0  0
   12.7495   39.0865   32.0745 O   0  0  0  0  0  0  0  0  0  0  0  0
   10.6063   38.1874   31.6644 C   0  0  0  0  0  0  0  0  0  0  0  0
   12.9357   37.6797   32.0287 C   0  0  0  0  0  0  0  0  0  0  0  0
    9.6407   38.0913   30.6455 O   0  0  0  0  0  0  0  0  0  0  0  0
   11.5765   37.0151   31.7032 C   0  0  0  0  0  0  0  0  0  0  0  0
   13.4851   37.2128   33.3237 N   0  0  0  0  0  0  0  0  0  0  0  0
   11.6106   36.3400   30.4663 O   0  0  0  0  0  0  0  0  0  0  0  0
   14.4799   36.3321   33.5732 C   0  0  0  0  0  0  0  0  0  0  0  0
   13.1125   37.6279   34.5683 C   0  0  0  0  0  0  0  0  0  0  0  0
   15.2072   35.6157   32.6747 N   0  0  0  0  0  0  0  0  0  0  0  0
   14.6741   36.2312   34.9186 C   0  0  0  0  0  0  0  0  0  0  0  0
   13.8193   37.0457   35.5780 N   0  0  0  0  0  0  0  0  0  0  0  0
   16.1640   34.7610   33.1565 C   0  0  0  0  0  0  0  0  0  0  0  0
   15.6511   35.3506   35.4145 C   0  0  0  0  0  0  0  0  0  0  0  0
   16.3780   34.6320   34.5060 N   0  0  0  0  0  0  0  0  0  0  0  0
   15.9049   35.1877   36.8089 N   0  0  0  0  0  0  0  0  0  0  0  0
    9.0102   45.4343   33.6674 H   0  0  0  0  0  0  0  0  0  0  0  0
   11.1145   46.1958   34.4921 H   0  0  0  0  0  0  0  0  0  0  0  0
   11.9349   45.6974   33.0922 H   0  0  0  0  0  0  0  0  0  0  0  0
   10.7354   44.9003   31.1701 H   0  0  0  0  0  0  0  0  0  0  0  0
    9.3586   43.8364   31.4729 H   0  0  0  0  0  0  0  0  0  0  0  0
    7.0151   44.7190   31.5932 H   0  0  0  0  0  0  0  0  0  0  0  0
   10.3462   47.1888   30.4104 H   0  0  0  0  0  0  0  0  0  0  0  0
    5.4640   46.3032   30.5119 H   0  0  0  0  0  0  0  0  0  0  0  0
    8.8135   48.7528   29.3287 H   0  0  0  0  0  0  0  0  0  0  0  0
    7.1591   50.1922   28.7422 H   0  0  0  0  0  0  0  0  0  0  0  0
    4.4156   49.8142   27.4133 H   0  0  0  0  0  0  0  0  0  0  0  0
    4.7366   50.7254   28.9353 H   0  0  0  0  0  0  0  0  0  0  0  0
    5.4780   51.2647   27.3862 H   0  0  0  0  0  0  0  0  0  0  0  0
    8.2730   50.6628   26.6693 H   0  0  0  0  0  0  0  0  0  0  0  0
    6.9691   46.2000   24.8627 H   0  0  0  0  0  0  0  0  0  0  0  0
   10.8481   48.4794   23.3259 H   0  0  0  0  0  0  0  0  0  0  0  0
    9.5480   49.2620   22.3057 H   0  0  0  0  0  0  0  0  0  0  0  0
   11.3839   41.5436   31.4675 H   0  0  0  0  0  0  0  0  0  0  0  0
    9.8233   40.7229   31.7616 H   0  0  0  0  0  0  0  0  0  0  0  0
   11.7007   39.5040   30.3472 H   0  0  0  0  0  0  0  0  0  0  0  0
   10.1081   38.2775   32.6589 H   0  0  0  0  0  0  0  0  0  0  0  0
   13.6684   37.4515   31.2228 H   0  0  0  0  0  0  0  0  0  0  0  0
    9.0025   37.3876   30.9330 H   0  0  0  0  0  0  0  0  0  0  0  0
   11.2664   36.3064   32.5070 H   0  0  0  0  0  0  0  0  0  0  0  0
   12.1401   35.5136   30.6142 H   0  0  0  0  0  0  0  0  0  0  0  0
   12.3276   38.3524   34.7429 H   0  0  0  0  0  0  0  0  0  0  0  0
   16.7566   34.1782   32.4643 H   0  0  0  0  0  0  0  0  0  0  0  0
   15.3647   35.7220   37.5256 H   0  0  0  0  0  0  0  0  0  0  0  0
   15.3650   35.7217   37.5252 H   0  0  0  0  0  0  0  0  0  0  0  0
  1  2  2  0
  1  3  1  0
  3  4  1  0
  4  5  1  0
  6  1  1  0
  7  6  1  0
  6  8  1  0
  8  9  1  0
  9 10  2  0
 11  9  1  0
 10 12  1  0
 13 11  2  0
 12 14  2  0
 14 13  1  0
 14 15  1  0
 15 16  1  0
 16 17  1  0
 16 18  1  0
 18 19  2  0
 20 18  1  0
 19 21  1  0
 22 20  2  0
 20 23  1  0
 21 24  1  0
 21 25  2  0
 25 22  1  0
 23 26  1  0
 23 27  2  0
 24 28  1  0
 25 29  1  0
 28 29  1  0
  4 30  2  0
  4 31  1  0
 32 31  1  0
 32 33  1  0
 33 34  1  0
 33 35  1  0
 34 36  1  0
 35 37  1  0
 35 38  1  0
 38 36  1  0
 36 39  1  0
 38 40  1  0
 41 39  1  0
 42 39  1  0
 43 41  2  0
 41 44  1  0
 45 42  2  0
 46 43  1  0
 44 47  2  0
 44 45  1  0
 48 46  2  0
 48 47  1  0
 47 49  1  0
  6 50  1  1
  7 51  1  0
  7 52  1  0
  8 53  1  0
  8 54  1  0
 10 55  1  0
 11 56  1  0
 12 57  1  0
 13 58  1  0
 16 59  1  1
 17 60  1  0
 17 61  1  0
 17 62  1  0
 19 63  1  0
 22 64  1  0
 28 65  1  0
 28 66  1  0
 32 67  1  0
 32 68  1  0
 33 69  1  0
 35 70  1  0
 36 71  1  0
 37 72  1  0
 38 73  1  0
 40 74  1  0
 42 75  1  0
 46 76  1  0
 49 77  1  0
 49 78  1  0
M  CHG  3   5  -1  23   1  26  -1
M  END
>  <EmbedRMS>  (123) 
0.0832687363151

$$$$

     RDKit          3D

 78 83  0  0  0  0  0  0  0  0999 V2000
   10.2805   43.7664   33.8249 C   0  0  0  0  0  0  0  0  0  0  0  0
   11.4111   43.5918   34.3667 O   0  0  0  0  0  0  0  0  0  0  0  0
    9.3619   42.7249   33.7344 O   0  0  0  0  0  0  0  0  0  0  0  0
    9.8899   41.2266   34.2940 P   0  0  0  0  0  0  0  0  0  0  0  0
   10.3734   41.4567   35.8833 O   0  0  0  0  0  0  0  0  0  0  0  0
    9.9461   45.0736   33.2112 C   0  0  1  0  0  0  0  0  0  0  0  0
   11.0267   46.0292   33.4709 N   0  0  0  0  0  0  0  0  0  0  0  0
    9.7542   44.8541   31.6949 C   0  0  0  0  0  0  0  0  0  0  0  0
    8.7960   45.8413   31.0850 C   0  0  0  0  0  0  0  0  0  0  0  0
    7.4098   45.6004   31.1010 C   0  0  0  0  0  0  0  0  0  0  0  0
    9.2823   46.9876   30.4400 C   0  0  0  0  0  0  0  0  0  0  0  0
    6.5265   46.4990   30.4865 C   0  0  0  0  0  0  0  0  0  0  0  0
    8.3992   47.8862   29.8314 C   0  0  0  0  0  0  0  0  0  0  0  0
    7.0169   47.6557   29.8453 C   0  0  0  0  0  0  0  0  0  0  0  0
    6.1916   48.5965   29.2019 O   0  0  0  0  0  0  0  0  0  0  0  0
    4.7608   48.5869   29.1049 C   0  0  2  0  0  0  0  0  0  0  0  0
    4.1378   48.9197   30.4701 C   0  0  0  0  0  0  0  0  0  0  0  0
    4.2506   47.3229   28.4102 C   0  0  0  0  0  0  0  0  0  0  0  0
    3.2062   46.5466   28.9835 C   0  0  0  0  0  0  0  0  0  0  0  0
    4.8393   46.8818   27.1737 C   0  0  0  0  0  0  0  0  0  0  0  0
    2.8250   45.3706   28.3521 C   0  0  0  0  0  0  0  0  0  0  0  0
    4.4174   45.6667   26.5886 C   0  0  0  0  0  0  0  0  0  0  0  0
    5.8659   47.6372   26.5082 N   0  0  0  0  0  0  0  0  0  0  0  0
    1.8551   44.4654   28.7385 O   0  0  0  0  0  0  0  0  0  0  0  0
    3.4079   44.9468   27.2091 C   0  0  0  0  0  0  0  0  0  0  0  0
    6.8587   46.9815   25.8171 O   0  0  0  0  0  0  0  0  0  0  0  0
    5.7619   48.8742   26.3806 O   0  0  0  0  0  0  0  0  0  0  0  0
    1.8296   43.4052   27.7732 C   0  0  0  0  0  0  0  0  0  0  0  0
    2.8367   43.7526   26.8134 O   0  0  0  0  0  0  0  0  0  0  0  0
    8.8123   40.1844   34.2133 O   0  0  0  0  0  0  0  0  0  0  0  0
   11.2405   40.7942   33.3691 O   0  0  0  0  0  0  0  0  0  0  0  0
   10.9150   40.6905   31.9972 C   0  0  0  0  0  0  0  0  0  0  0  0
   11.5252   39.3886   31.4375 C   0  0  0  0  0  0  0  0  0  0  0  0
   12.7499   39.0874   32.0799 O   0  0  0  0  0  0  0  0  0  0  0  0
   10.6092   38.1926   31.6469 C   0  0  0  0  0  0  0  0  0  0  0  0
   12.9332   37.6793   32.0294 C   0  0  0  0  0  0  0  0  0  0  0  0
    9.6121   38.0894   30.6542 O   0  0  0  0  0  0  0  0  0  0  0  0
   11.5743   37.0145   31.7024 C   0  0  0  0  0  0  0  0  0  0  0  0
   13.4844   37.2108   33.3241 N   0  0  0  0  0  0  0  0  0  0  0  0
   11.6297   36.3239   30.4740 O   0  0  0  0  0  0  0  0  0  0  0  0
   14.4802   36.3313   33.5727 C   0  0  0  0  0  0  0  0  0  0  0  0
   13.1138   37.6266   34.5692 C   0  0  0  0  0  0  0  0  0  0  0  0
   15.2075   35.6149   32.6739 N   0  0  0  0  0  0  0  0  0  0  0  0
   14.6761   36.2303   34.9181 C   0  0  0  0  0  0  0  0  0  0  0  0
   13.8220   37.0447   35.5785 N   0  0  0  0  0  0  0  0  0  0  0  0
   16.1643   34.7600   33.1547 C   0  0  0  0  0  0  0  0  0  0  0  0
   15.6529   35.3505   35.4130 C   0  0  0  0  0  0  0  0  0  0  0  0
   16.3798   34.6315   34.5042 N   0  0  0  0  0  0  0  0  0  0  0  0
   15.9003   35.1932   36.8090 N   0  0  0  0  0  0  0  0  0  0  0  0
    8.9996   45.4381   33.6721 H   0  0  0  0  0  0  0  0  0  0  0  0
   10.7765   46.9369   33.0160 H   0  0  0  0  0  0  0  0  0  0  0  0
   11.0502   46.2277   34.4983 H   0  0  0  0  0  0  0  0  0  0  0  0
    9.3647   43.8354   31.4710 H   0  0  0  0  0  0  0  0  0  0  0  0
   10.7414   44.9079   31.1836 H   0  0  0  0  0  0  0  0  0  0  0  0
    7.0159   44.7149   31.5847 H   0  0  0  0  0  0  0  0  0  0  0  0
   10.3461   47.1874   30.4050 H   0  0  0  0  0  0  0  0  0  0  0  0
    5.4742   46.2721   30.5194 H   0  0  0  0  0  0  0  0  0  0  0  0
    8.7925   48.7664   29.3386 H   0  0  0  0  0  0  0  0  0  0  0  0
    4.4784   49.4369   28.4487 H   0  0  0  0  0  0  0  0  0  0  0  0
    4.2965   48.1075   31.2069 H   0  0  0  0  0  0  0  0  0  0  0  0
    4.6025   49.8447   30.8725 H   0  0  0  0  0  0  0  0  0  0  0  0
    3.0488   49.1093   30.3605 H   0  0  0  0  0  0  0  0  0  0  0  0
    2.7099   46.8225   29.9022 H   0  0  0  0  0  0  0  0  0  0  0  0
    4.8500   45.3055   25.6646 H   0  0  0  0  0  0  0  0  0  0  0  0
    2.0795   42.4382   28.2580 H   0  0  0  0  0  0  0  0  0  0  0  0
    0.8345   43.3555   27.2835 H   0  0  0  0  0  0  0  0  0  0  0  0
    9.8241   40.7215   31.7641 H   0  0  0  0  0  0  0  0  0  0  0  0
   11.3800   41.5528   31.4730 H   0  0  0  0  0  0  0  0  0  0  0  0
   11.7266   39.5310   30.3513 H   0  0  0  0  0  0  0  0  0  0  0  0
   10.1110   38.2747   32.6387 H   0  0  0  0  0  0  0  0  0  0  0  0
   13.6652   37.4520   31.2226 H   0  0  0  0  0  0  0  0  0  0  0  0
   10.0511   38.1143   29.7645 H   0  0  0  0  0  0  0  0  0  0  0  0
   11.2762   36.3141   32.5189 H   0  0  0  0  0  0  0  0  0  0  0  0
   10.8593   35.6978   30.4640 H   0  0  0  0  0  0  0  0  0  0  0  0
   12.3294   38.3518   34.7449 H   0  0  0  0  0  0  0  0  0  0  0  0
   16.7564   34.1780   32.4620 H   0  0  0  0  0  0  0  0  0  0  0  0
   15.3534   35.7359   37.5138 H   0  0  0  0  0  0  0  0  0  0  0  0
   16.6349   34.5300   37.1415 H   0  0  0  0  0  0  0  0  0  0  0  0
  1  2  2  0
  1  3  1  0
  3  4  1  0
  4  5  1  0
  6  1  1  0
  7  6  1  0
  6  8  1  0
  8  9  1  0
  9 10  2  0
 11  9  1  0
 10 12  1  0
 13 11  2  0
 12 14  2  0
 14 13  1  0
 14 15  1  0
 15 16  1  0
 16 17  1  0
 16 18  1  0
 18 19  2  0
 20 18  1  0
 19 21  1  0
 22 20  2  0
 20 23  1  0
 21 24  1  0
 21 25  2  0
 25 22  1  0
 23 26  1  0
 23 27  2  0
 24 28  1  0
 25 29  1  0
 28 29  1  0
  4 30  2  0
  4 31  1  0
 32 31  1  0
 32 33  1  0
 33 34  1  0
 33 35  1  0
 34 36  1  0
 35 37  1  0
 35 38  1  0
 38 36  1  0
 36 39  1  0
 38 40  1  0
 41 39  1  0
 42 39  1  0
 43 41  2  0
 41 44  1  0
 45 42  2  0
 46 43  1  0
 44 47  2  0
 44 45  1  0
 48 46  2  0
 48 47  1  0
 47 49  1  0
  6 50  1  1
  7 51  1  0
  7 52  1  0
  8 53  1  0
  8 54  1  0
 10 55  1  0
 11 56  1  0
 12 57  1  0
 13 58  1  0
 16 59  1  6
 17 60  1  0
 17 61  1  0
 17 62  1  0
 19 63  1  0
 22 64  1  0
 28 65  1  0
 28 66  1  0
 32 67  1  0
 32 68  1  0
 33 69  1  0
 35 70  1  0
 36 71  1  0
 37 72  1  0
 38 73  1  0
 40 74  1  0
 42 75  1  0
 46 76  1  0
 49 77  1  0
 49 78  1  0
M  CHG  3   5  -1  23   1  26  -1
M  END
>  <EmbedRMS>  (124) 
0.0816219745308

$$$$

     RDKit          3D

 78 83  0  0  0  0  0  0  0  0999 V2000
   10.2830   43.7666   33.8256 C   0  0  0  0  0  0  0  0  0  0  0  0
   11.4099   43.5935   34.3750 O   0  0  0  0  0  0  0  0  0  0  0  0
    9.3635   42.7257   33.7349 O   0  0  0  0  0  0  0  0  0  0  0  0
    9.8902   41.2269   34.2941 P   0  0  0  0  0  0  0  0  0  0  0  0
   10.3736   41.4562   35.8835 O   0  0  0  0  0  0  0  0  0  0  0  0
    9.9539   45.0699   33.2035 C   0  0  1  0  0  0  0  0  0  0  0  0
   11.0260   46.0331   33.4760 N   0  0  0  0  0  0  0  0  0  0  0  0
    9.7466   44.8486   31.6875 C   0  0  0  0  0  0  0  0  0  0  0  0
    8.7923   45.8408   31.0838 C   0  0  0  0  0  0  0  0  0  0  0  0
    7.4045   45.5995   31.0975 C   0  0  0  0  0  0  0  0  0  0  0  0
    9.2828   46.9879   30.4391 C   0  0  0  0  0  0  0  0  0  0  0  0
    6.5253   46.5008   30.4822 C   0  0  0  0  0  0  0  0  0  0  0  0
    8.4016   47.8885   29.8285 C   0  0  0  0  0  0  0  0  0  0  0  0
    7.0206   47.6549   29.8580 C   0  0  0  0  0  0  0  0  0  0  0  0
    6.1430   48.5499   29.2413 O   0  0  0  0  0  0  0  0  0  0  0  0
    5.4927   49.6284   29.9214 C   0  0  2  0  0  0  0  0  0  0  0  0
    6.4602   50.7870   30.1838 C   0  0  0  0  0  0  0  0  0  0  0  0
    4.7032   49.1390   31.1357 C   0  0  0  0  0  0  0  0  0  0  0  0
    3.3511   48.7734   30.9155 C   0  0  0  0  0  0  0  0  0  0  0  0
    5.2688   48.9285   32.4416 C   0  0  0  0  0  0  0  0  0  0  0  0
    2.6231   48.2305   31.9660 C   0  0  0  0  0  0  0  0  0  0  0  0
    4.4827   48.3654   33.4691 C   0  0  0  0  0  0  0  0  0  0  0  0
    6.6170   49.2812   32.7547 N   0  0  0  0  0  0  0  0  0  0  0  0
    1.3081   47.8068   31.9710 O   0  0  0  0  0  0  0  0  0  0  0  0
    3.1656   48.0334   33.1884 C   0  0  0  0  0  0  0  0  0  0  0  0
    7.5134   48.2804   33.0462 O   0  0  0  0  0  0  0  0  0  0  0  0
    6.8561   50.4349   33.1657 O   0  0  0  0  0  0  0  0  0  0  0  0
    1.0071   47.3141   33.2838 C   0  0  0  0  0  0  0  0  0  0  0  0
    2.2211   47.4773   34.0295 O   0  0  0  0  0  0  0  0  0  0  0  0
    8.8121   40.1851   34.2131 O   0  0  0  0  0  0  0  0  0  0  0  0
   11.2404   40.7942   33.3690 O   0  0  0  0  0  0  0  0  0  0  0  0
   10.9143   40.6898   31.9972 C   0  0  0  0  0  0  0  0  0  0  0  0
   11.5261   39.3885   31.4376 C   0  0  0  0  0  0  0  0  0  0  0  0
   12.7504   39.0888   32.0816 O   0  0  0  0  0  0  0  0  0  0  0  0
   10.6115   38.1910   31.6460 C   0  0  0  0  0  0  0  0  0  0  0  0
   12.9357   37.6812   32.0303 C   0  0  0  0  0  0  0  0  0  0  0  0
    9.6146   38.0859   30.6534 O   0  0  0  0  0  0  0  0  0  0  0  0
   11.5769   37.0148   31.7012 C   0  0  0  0  0  0  0  0  0  0  0  0
   13.4849   37.2112   33.3247 N   0  0  0  0  0  0  0  0  0  0  0  0
   11.6193   36.3261   30.4724 O   0  0  0  0  0  0  0  0  0  0  0  0
   14.4802   36.3313   33.5730 C   0  0  0  0  0  0  0  0  0  0  0  0
   13.1141   37.6268   34.5698 C   0  0  0  0  0  0  0  0  0  0  0  0
   15.2075   35.6151   32.6741 N   0  0  0  0  0  0  0  0  0  0  0  0
   14.6761   36.2300   34.9184 C   0  0  0  0  0  0  0  0  0  0  0  0
   13.8220   37.0445   35.5789 N   0  0  0  0  0  0  0  0  0  0  0  0
   16.1642   34.7600   33.1547 C   0  0  0  0  0  0  0  0  0  0  0  0
   15.6529   35.3503   35.4132 C   0  0  0  0  0  0  0  0  0  0  0  0
   16.3797   34.6314   34.5042 N   0  0  0  0  0  0  0  0  0  0  0  0
   15.9004   35.1930   36.8090 N   0  0  0  0  0  0  0  0  0  0  0  0
    9.0108   45.4320   33.6708 H   0  0  0  0  0  0  0  0  0  0  0  0
   11.8893   45.7679   32.9468 H   0  0  0  0  0  0  0  0  0  0  0  0
   10.7235   46.9697   33.1227 H   0  0  0  0  0  0  0  0  0  0  0  0
    9.3421   43.8333   31.4759 H   0  0  0  0  0  0  0  0  0  0  0  0
   10.7232   44.8825   31.1560 H   0  0  0  0  0  0  0  0  0  0  0  0
    7.0077   44.7139   31.5782 H   0  0  0  0  0  0  0  0  0  0  0  0
   10.3472   47.1843   30.4047 H   0  0  0  0  0  0  0  0  0  0  0  0
    5.4607   46.3053   30.4952 H   0  0  0  0  0  0  0  0  0  0  0  0
    8.7923   48.7667   29.3309 H   0  0  0  0  0  0  0  0  0  0  0  0
    4.7576   50.0456   29.1979 H   0  0  0  0  0  0  0  0  0  0  0  0
    7.4021   50.4369   30.6485 H   0  0  0  0  0  0  0  0  0  0  0  0
    5.9799   51.5554   30.8261 H   0  0  0  0  0  0  0  0  0  0  0  0
    6.7338   51.2648   29.2189 H   0  0  0  0  0  0  0  0  0  0  0  0
    2.8829   48.8888   29.9460 H   0  0  0  0  0  0  0  0  0  0  0  0
    4.8903   48.1985   34.4581 H   0  0  0  0  0  0  0  0  0  0  0  0
    0.7278   46.2407   33.2365 H   0  0  0  0  0  0  0  0  0  0  0  0
    0.1926   47.9137   33.7417 H   0  0  0  0  0  0  0  0  0  0  0  0
    9.8233   40.7191   31.7647 H   0  0  0  0  0  0  0  0  0  0  0  0
   11.3778   41.5526   31.4726 H   0  0  0  0  0  0  0  0  0  0  0  0
   11.7283   39.5312   30.3515 H   0  0  0  0  0  0  0  0  0  0  0  0
   10.1127   38.2734   32.6376 H   0  0  0  0  0  0  0  0  0  0  0  0
   13.6692   37.4566   31.2242 H   0  0  0  0  0  0  0  0  0  0  0  0
   10.0533   38.1119   29.7636 H   0  0  0  0  0  0  0  0  0  0  0  0
   11.2607   36.3148   32.5102 H   0  0  0  0  0  0  0  0  0  0  0  0
   12.1496   35.5023   30.6324 H   0  0  0  0  0  0  0  0  0  0  0  0
   12.3301   38.3524   34.7455 H   0  0  0  0  0  0  0  0  0  0  0  0
   16.7562   34.1781   32.4619 H   0  0  0  0  0  0  0  0  0  0  0  0
   16.6351   34.5298   37.1415 H   0  0  0  0  0  0  0  0  0  0  0  0
   15.3536   35.7357   37.5140 H   0  0  0  0  0  0  0  0  0  0  0  0
  1  2  2  0
  1  3  1  0
  3  4  1  0
  4  5  1  0
  6  1  1  0
  7  6  1  0
  6  8  1  0
  8  9  1  0
  9 10  2  0
 11  9  1  0
 10 12  1  0
 13 11  2  0
 12 14  2  0
 14 13  1  0
 14 15  1  0
 15 16  1  0
 16 17  1  0
 16 18  1  0
 18 19  2  0
 20 18  1  0
 19 21  1  0
 22 20  2  0
 20 23  1  0
 21 24  1  0
 21 25  2  0
 25 22  1  0
 23 26  1  0
 23 27  2  0
 24 28  1  0
 25 29  1  0
 28 29  1  0
  4 30  2  0
  4 31  1  0
 32 31  1  0
 32 33  1  0
 33 34  1  0
 33 35  1  0
 34 36  1  0
 35 37  1  0
 35 38  1  0
 38 36  1  0
 36 39  1  0
 38 40  1  0
 41 39  1  0
 42 39  1  0
 43 41  2  0
 41 44  1  0
 45 42  2  0
 46 43  1  0
 44 47  2  0
 44 45  1  0
 48 46  2  0
 48 47  1  0
 47 49  1  0
  6 50  1  1
  7 51  1  0
  7 52  1  0
  8 53  1  0
  8 54  1  0
 10 55  1  0
 11 56  1  0
 12 57  1  0
 13 58  1  0
 16 59  1  6
 17 60  1  0
 17 61  1  0
 17 62  1  0
 19 63  1  0
 22 64  1  0
 28 65  1  0
 28 66  1  0
 32 67  1  0
 32 68  1  0
 33 69  1  0
 35 70  1  0
 36 71  1  0
 37 72  1  0
 38 73  1  0
 40 74  1  0
 42 75  1  0
 46 76  1  0
 49 77  1  0
 49 78  1  0
M  CHG  3   5  -1  23   1  26  -1
M  END
>  <EmbedRMS>  (125) 
0.0817601968384

$$$$

     RDKit          3D

 78 83  0  0  0  0  0  0  0  0999 V2000
   10.2836   43.7661   33.8256 C   0  0  0  0  0  0  0  0  0  0  0  0
   11.4103   43.5929   34.3753 O   0  0  0  0  0  0  0  0  0  0  0  0
    9.3638   42.7255   33.7348 O   0  0  0  0  0  0  0  0  0  0  0  0
    9.8906   41.2265   34.2933 P   0  0  0  0  0  0  0  0  0  0  0  0
   10.3743   41.4557   35.8827 O   0  0  0  0  0  0  0  0  0  0  0  0
    9.9548   45.0695   33.2038 C   0  0  1  0  0  0  0  0  0  0  0  0
   11.0275   46.0322   33.4761 N   0  0  0  0  0  0  0  0  0  0  0  0
    9.7470   44.8486   31.6879 C   0  0  0  0  0  0  0  0  0  0  0  0
    8.7925   45.8416   31.0857 C   0  0  0  0  0  0  0  0  0  0  0  0
    7.4063   45.6008   31.0985 C   0  0  0  0  0  0  0  0  0  0  0  0
    9.2815   46.9874   30.4418 C   0  0  0  0  0  0  0  0  0  0  0  0
    6.5252   46.5003   30.4833 C   0  0  0  0  0  0  0  0  0  0  0  0
    8.4003   47.8863   29.8304 C   0  0  0  0  0  0  0  0  0  0  0  0
    7.0175   47.6593   29.8483 C   0  0  0  0  0  0  0  0  0  0  0  0
    6.1871   48.6011   29.2090 O   0  0  0  0  0  0  0  0  0  0  0  0
    4.7619   48.7412   29.3345 C   0  0  2  0  0  0  0  0  0  0  0  0
    4.3595   48.8487   30.8197 C   0  0  0  0  0  0  0  0  0  0  0  0
    3.9786   47.6744   28.5642 C   0  0  0  0  0  0  0  0  0  0  0  0
    4.6689   46.6867   27.8111 C   0  0  0  0  0  0  0  0  0  0  0  0
    2.5409   47.6525   28.5677 C   0  0  0  0  0  0  0  0  0  0  0  0
    3.9356   45.6869   27.1866 C   0  0  0  0  0  0  0  0  0  0  0  0
    1.8499   46.5986   27.9274 C   0  0  0  0  0  0  0  0  0  0  0  0
    1.7727   48.7032   29.1718 N   0  0  0  0  0  0  0  0  0  0  0  0
    4.4000   44.6257   26.4333 O   0  0  0  0  0  0  0  0  0  0  0  0
    2.5869   45.6386   27.2509 C   0  0  0  0  0  0  0  0  0  0  0  0
    2.0266   50.0148   28.8441 O   0  0  0  0  0  0  0  0  0  0  0  0
    0.7296   48.4300   29.8008 O   0  0  0  0  0  0  0  0  0  0  0  0
    3.2667   43.8611   26.0004 C   0  0  0  0  0  0  0  0  0  0  0  0
    2.1286   44.5438   26.5436 O   0  0  0  0  0  0  0  0  0  0  0  0
    8.8122   40.1851   34.2127 O   0  0  0  0  0  0  0  0  0  0  0  0
   11.2406   40.7945   33.3670 O   0  0  0  0  0  0  0  0  0  0  0  0
   10.9134   40.6866   31.9954 C   0  0  0  0  0  0  0  0  0  0  0  0
   11.5167   39.3787   31.4404 C   0  0  0  0  0  0  0  0  0  0  0  0
   12.7486   39.0849   32.0734 O   0  0  0  0  0  0  0  0  0  0  0  0
   10.6039   38.1884   31.6669 C   0  0  0  0  0  0  0  0  0  0  0  0
   12.9329   37.6776   32.0284 C   0  0  0  0  0  0  0  0  0  0  0  0
    9.6374   38.0938   30.6484 O   0  0  0  0  0  0  0  0  0  0  0  0
   11.5737   37.0141   31.7055 C   0  0  0  0  0  0  0  0  0  0  0  0
   13.4853   37.2120   33.3238 N   0  0  0  0  0  0  0  0  0  0  0  0
   11.6210   36.3379   30.4683 O   0  0  0  0  0  0  0  0  0  0  0  0
   14.4804   36.3319   33.5726 C   0  0  0  0  0  0  0  0  0  0  0  0
   13.1141   37.6275   34.5689 C   0  0  0  0  0  0  0  0  0  0  0  0
   15.2076   35.6152   32.6740 N   0  0  0  0  0  0  0  0  0  0  0  0
   14.6761   36.2306   34.9181 C   0  0  0  0  0  0  0  0  0  0  0  0
   13.8218   37.0451   35.5783 N   0  0  0  0  0  0  0  0  0  0  0  0
   16.1642   34.7600   33.1548 C   0  0  0  0  0  0  0  0  0  0  0  0
   15.6528   35.3507   35.4131 C   0  0  0  0  0  0  0  0  0  0  0  0
   16.3795   34.6315   34.5043 N   0  0  0  0  0  0  0  0  0  0  0  0
   15.9000   35.1933   36.8090 N   0  0  0  0  0  0  0  0  0  0  0  0
    9.0122   45.4317   33.6717 H   0  0  0  0  0  0  0  0  0  0  0  0
   10.7262   46.9688   33.1217 H   0  0  0  0  0  0  0  0  0  0  0  0
   11.8909   45.7658   32.9477 H   0  0  0  0  0  0  0  0  0  0  0  0
    9.3423   43.8334   31.4759 H   0  0  0  0  0  0  0  0  0  0  0  0
   10.7234   44.8827   31.1559 H   0  0  0  0  0  0  0  0  0  0  0  0
    7.0112   44.7108   31.5729 H   0  0  0  0  0  0  0  0  0  0  0  0
   10.3459   47.1852   30.4087 H   0  0  0  0  0  0  0  0  0  0  0  0
    5.4731   46.2628   30.4832 H   0  0  0  0  0  0  0  0  0  0  0  0
    8.7945   48.7666   29.3387 H   0  0  0  0  0  0  0  0  0  0  0  0
    4.5200   49.7156   28.8617 H   0  0  0  0  0  0  0  0  0  0  0  0
    5.1912   49.2843   31.4133 H   0  0  0  0  0  0  0  0  0  0  0  0
    3.4883   49.5222   30.9460 H   0  0  0  0  0  0  0  0  0  0  0  0
    4.0920   47.8617   31.2481 H   0  0  0  0  0  0  0  0  0  0  0  0
    5.7439   46.6804   27.7078 H   0  0  0  0  0  0  0  0  0  0  0  0
    0.7683   46.5529   27.9259 H   0  0  0  0  0  0  0  0  0  0  0  0
    3.3230   42.8285   26.4043 H   0  0  0  0  0  0  0  0  0  0  0  0
    3.2128   43.8485   24.8916 H   0  0  0  0  0  0  0  0  0  0  0  0
    9.8225   40.7225   31.7631 H   0  0  0  0  0  0  0  0  0  0  0  0
   11.3828   41.5438   31.4669 H   0  0  0  0  0  0  0  0  0  0  0  0
   11.6978   39.5037   30.3478 H   0  0  0  0  0  0  0  0  0  0  0  0
   10.1084   38.2787   32.6627 H   0  0  0  0  0  0  0  0  0  0  0  0
   13.6638   37.4472   31.2214 H   0  0  0  0  0  0  0  0  0  0  0  0
    8.9763   37.4191   30.9532 H   0  0  0  0  0  0  0  0  0  0  0  0
   11.2821   36.3054   32.5172 H   0  0  0  0  0  0  0  0  0  0  0  0
   10.8658   35.6935   30.4652 H   0  0  0  0  0  0  0  0  0  0  0  0
   12.3293   38.3523   34.7444 H   0  0  0  0  0  0  0  0  0  0  0  0
   16.7561   34.1778   32.4621 H   0  0  0  0  0  0  0  0  0  0  0  0
   16.6345   34.5300   37.1416 H   0  0  0  0  0  0  0  0  0  0  0  0
   15.3533   35.7361   37.5138 H   0  0  0  0  0  0  0  0  0  0  0  0
  1  2  2  0
  1  3  1  0
  3  4  1  0
  4  5  1  0
  6  1  1  0
  7  6  1  0
  6  8  1  0
  8  9  1  0
  9 10  2  0
 11  9  1  0
 10 12  1  0
 13 11  2  0
 12 14  2  0
 14 13  1  0
 14 15  1  0
 15 16  1  0
 16 17  1  0
 16 18  1  0
 18 19  2  0
 20 18  1  0
 19 21  1  0
 22 20  2  0
 20 23  1  0
 21 24  1  0
 21 25  2  0
 25 22  1  0
 23 26  1  0
 23 27  2  0
 24 28  1  0
 25 29  1  0
 28 29  1  0
  4 30  2  0
  4 31  1  0
 32 31  1  0
 32 33  1  0
 33 34  1  0
 33 35  1  0
 34 36  1  0
 35 37  1  0
 35 38  1  0
 38 36  1  0
 36 39  1  0
 38 40  1  0
 41 39  1  0
 42 39  1  0
 43 41  2  0
 41 44  1  0
 45 42  2  0
 46 43  1  0
 44 47  2  0
 44 45  1  0
 48 46  2  0
 48 47  1  0
 47 49  1  0
  6 50  1  1
  7 51  1  0
  7 52  1  0
  8 53  1  0
  8 54  1  0
 10 55  1  0
 11 56  1  0
 12 57  1  0
 13 58  1  0
 16 59  1  6
 17 60  1  0
 17 61  1  0
 17 62  1  0
 19 63  1  0
 22 64  1  0
 28 65  1  0
 28 66  1  0
 32 67  1  0
 32 68  1  0
 33 69  1  0
 35 70  1  0
 36 71  1  0
 37 72  1  0
 38 73  1  0
 40 74  1  0
 42 75  1  0
 46 76  1  0
 49 77  1  0
 49 78  1  0
M  CHG  3   5  -1  23   1  26  -1
M  END
>  <EmbedRMS>  (126) 
0.0825238821888

$$$$

     RDKit          3D

 78 83  0  0  0  0  0  0  0  0999 V2000
   10.2838   43.7627   33.8276 C   0  0  0  0  0  0  0  0  0  0  0  0
   11.4103   43.5863   34.3766 O   0  0  0  0  0  0  0  0  0  0  0  0
    9.3628   42.7238   33.7357 O   0  0  0  0  0  0  0  0  0  0  0  0
    9.8893   41.2251   34.2943 P   0  0  0  0  0  0  0  0  0  0  0  0
   10.3730   41.4545   35.8836 O   0  0  0  0  0  0  0  0  0  0  0  0
    9.9549   45.0700   33.2063 C   0  0  1  0  0  0  0  0  0  0  0  0
   11.0198   46.0481   33.4570 N   0  0  0  0  0  0  0  0  0  0  0  0
    9.7507   44.8510   31.6922 C   0  0  0  0  0  0  0  0  0  0  0  0
    8.7945   45.8417   31.0866 C   0  0  0  0  0  0  0  0  0  0  0  0
    7.4078   45.6007   31.1005 C   0  0  0  0  0  0  0  0  0  0  0  0
    9.2827   46.9892   30.4449 C   0  0  0  0  0  0  0  0  0  0  0  0
    6.5253   46.5002   30.4860 C   0  0  0  0  0  0  0  0  0  0  0  0
    8.4009   47.8883   29.8341 C   0  0  0  0  0  0  0  0  0  0  0  0
    7.0192   47.6550   29.8441 C   0  0  0  0  0  0  0  0  0  0  0  0
    6.1877   48.5962   29.2151 O   0  0  0  0  0  0  0  0  0  0  0  0
    4.7764   48.4769   29.0183 C   0  0  2  0  0  0  0  0  0  0  0  0
    4.4532   47.4455   27.9307 C   0  0  0  0  0  0  0  0  0  0  0  0
    4.1652   49.8218   28.6618 C   0  0  0  0  0  0  0  0  0  0  0  0
    2.8278   50.0543   29.0672 C   0  0  0  0  0  0  0  0  0  0  0  0
    4.8764   50.8643   27.9707 C   0  0  0  0  0  0  0  0  0  0  0  0
    2.2577   51.2936   28.8094 C   0  0  0  0  0  0  0  0  0  0  0  0
    4.2465   52.1113   27.7516 C   0  0  0  0  0  0  0  0  0  0  0  0
    6.2162   50.6840   27.4861 N   0  0  0  0  0  0  0  0  0  0  0  0
    0.9858   51.7352   29.1196 O   0  0  0  0  0  0  0  0  0  0  0  0
    2.9384   52.2799   28.1835 C   0  0  0  0  0  0  0  0  0  0  0  0
    6.5262   49.6062   26.6907 O   0  0  0  0  0  0  0  0  0  0  0  0
    7.0452   51.6114   27.5917 O   0  0  0  0  0  0  0  0  0  0  0  0
    0.8620   53.0870   28.6570 C   0  0  0  0  0  0  0  0  0  0  0  0
    2.1315   53.3953   28.0655 O   0  0  0  0  0  0  0  0  0  0  0  0
    8.8113   40.1835   34.2130 O   0  0  0  0  0  0  0  0  0  0  0  0
   11.2397   40.7942   33.3684 O   0  0  0  0  0  0  0  0  0  0  0  0
   10.9125   40.6875   31.9969 C   0  0  0  0  0  0  0  0  0  0  0  0
   11.5169   39.3810   31.4420 C   0  0  0  0  0  0  0  0  0  0  0  0
   12.7500   39.0880   32.0758 O   0  0  0  0  0  0  0  0  0  0  0  0
   10.6043   38.1892   31.6659 C   0  0  0  0  0  0  0  0  0  0  0  0
   12.9395   37.6813   32.0279 C   0  0  0  0  0  0  0  0  0  0  0  0
    9.6353   38.0951   30.6499 O   0  0  0  0  0  0  0  0  0  0  0  0
   11.5804   37.0190   31.6934 C   0  0  0  0  0  0  0  0  0  0  0  0
   13.4851   37.2119   33.3244 N   0  0  0  0  0  0  0  0  0  0  0  0
   11.6118   36.3188   30.4673 O   0  0  0  0  0  0  0  0  0  0  0  0
   14.4801   36.3316   33.5732 C   0  0  0  0  0  0  0  0  0  0  0  0
   13.1139   37.6277   34.5692 C   0  0  0  0  0  0  0  0  0  0  0  0
   15.2076   35.6154   32.6744 N   0  0  0  0  0  0  0  0  0  0  0  0
   14.6756   36.2303   34.9186 C   0  0  0  0  0  0  0  0  0  0  0  0
   13.8215   37.0451   35.5786 N   0  0  0  0  0  0  0  0  0  0  0  0
   16.1642   34.7602   33.1551 C   0  0  0  0  0  0  0  0  0  0  0  0
   15.6526   35.3505   35.4134 C   0  0  0  0  0  0  0  0  0  0  0  0
   16.3796   34.6316   34.5045 N   0  0  0  0  0  0  0  0  0  0  0  0
   15.9001   35.1933   36.8093 N   0  0  0  0  0  0  0  0  0  0  0  0
    9.0098   45.4350   33.6668 H   0  0  0  0  0  0  0  0  0  0  0  0
   11.9349   45.6933   33.0928 H   0  0  0  0  0  0  0  0  0  0  0  0
   11.1132   46.1993   34.4884 H   0  0  0  0  0  0  0  0  0  0  0  0
   10.7310   44.8930   31.1676 H   0  0  0  0  0  0  0  0  0  0  0  0
    9.3519   43.8344   31.4758 H   0  0  0  0  0  0  0  0  0  0  0  0
    7.0129   44.7158   31.5844 H   0  0  0  0  0  0  0  0  0  0  0  0
   10.3466   47.1898   30.4156 H   0  0  0  0  0  0  0  0  0  0  0  0
    5.4678   46.2836   30.5221 H   0  0  0  0  0  0  0  0  0  0  0  0
    8.7938   48.7709   29.3452 H   0  0  0  0  0  0  0  0  0  0  0  0
    4.3184   48.1410   29.9745 H   0  0  0  0  0  0  0  0  0  0  0  0
    4.9175   46.4667   28.1668 H   0  0  0  0  0  0  0  0  0  0  0  0
    3.3541   47.2983   27.8640 H   0  0  0  0  0  0  0  0  0  0  0  0
    4.8236   47.7777   26.9403 H   0  0  0  0  0  0  0  0  0  0  0  0
    2.2521   49.2937   29.5800 H   0  0  0  0  0  0  0  0  0  0  0  0
    4.7565   52.9172   27.2394 H   0  0  0  0  0  0  0  0  0  0  0  0
    0.6613   53.7682   29.5104 H   0  0  0  0  0  0  0  0  0  0  0  0
    0.0568   53.1604   27.8962 H   0  0  0  0  0  0  0  0  0  0  0  0
   11.3812   41.5456   31.4692 H   0  0  0  0  0  0  0  0  0  0  0  0
    9.8216   40.7222   31.7644 H   0  0  0  0  0  0  0  0  0  0  0  0
   11.6985   39.5089   30.3498 H   0  0  0  0  0  0  0  0  0  0  0  0
   10.1109   38.2736   32.6630 H   0  0  0  0  0  0  0  0  0  0  0  0
   13.6783   37.4561   31.2271 H   0  0  0  0  0  0  0  0  0  0  0  0
    9.0020   37.3859   30.9348 H   0  0  0  0  0  0  0  0  0  0  0  0
   11.2808   36.3052   32.4921 H   0  0  0  0  0  0  0  0  0  0  0  0
   11.8818   36.9599   29.7584 H   0  0  0  0  0  0  0  0  0  0  0  0
   12.3303   38.3538   34.7445 H   0  0  0  0  0  0  0  0  0  0  0  0
   16.7564   34.1783   32.4624 H   0  0  0  0  0  0  0  0  0  0  0  0
   16.6348   34.5301   37.1418 H   0  0  0  0  0  0  0  0  0  0  0  0
   15.3532   35.7359   37.5142 H   0  0  0  0  0  0  0  0  0  0  0  0
  1  2  2  0
  1  3  1  0
  3  4  1  0
  4  5  1  0
  6  1  1  0
  7  6  1  0
  6  8  1  0
  8  9  1  0
  9 10  2  0
 11  9  1  0
 10 12  1  0
 13 11  2  0
 12 14  2  0
 14 13  1  0
 14 15  1  0
 15 16  1  0
 16 17  1  0
 16 18  1  0
 18 19  2  0
 20 18  1  0
 19 21  1  0
 22 20  2  0
 20 23  1  0
 21 24  1  0
 21 25  2  0
 25 22  1  0
 23 26  1  0
 23 27  2  0
 24 28  1  0
 25 29  1  0
 28 29  1  0
  4 30  2  0
  4 31  1  0
 32 31  1  0
 32 33  1  0
 33 34  1  0
 33 35  1  0
 34 36  1  0
 35 37  1  0
 35 38  1  0
 38 36  1  0
 36 39  1  0
 38 40  1  0
 41 39  1  0
 42 39  1  0
 43 41  2  0
 41 44  1  0
 45 42  2  0
 46 43  1  0
 44 47  2  0
 44 45  1  0
 48 46  2  0
 48 47  1  0
 47 49  1  0
  6 50  1  1
  7 51  1  0
  7 52  1  0
  8 53  1  0
  8 54  1  0
 10 55  1  0
 11 56  1  0
 12 57  1  0
 13 58  1  0
 16 59  1  1
 17 60  1  0
 17 61  1  0
 17 62  1  0
 19 63  1  0
 22 64  1  0
 28 65  1  0
 28 66  1  0
 32 67  1  0
 32 68  1  0
 33 69  1  0
 35 70  1  0
 36 71  1  0
 37 72  1  0
 38 73  1  0
 40 74  1  0
 42 75  1  0
 46 76  1  0
 49 77  1  0
 49 78  1  0
M  CHG  3   5  -1  23   1  26  -1
M  END
>  <EmbedRMS>  (127) 
0.0824570660085

$$$$

     RDKit          3D

 78 83  0  0  0  0  0  0  0  0999 V2000
   10.2838   43.7626   33.8276 C   0  0  0  0  0  0  0  0  0  0  0  0
   11.4103   43.5864   34.3767 O   0  0  0  0  0  0  0  0  0  0  0  0
    9.3631   42.7236   33.7353 O   0  0  0  0  0  0  0  0  0  0  0  0
    9.8898   41.2247   34.2935 P   0  0  0  0  0  0  0  0  0  0  0  0
   10.3734   41.4543   35.8829 O   0  0  0  0  0  0  0  0  0  0  0  0
    9.9548   45.0699   33.2063 C   0  0  1  0  0  0  0  0  0  0  0  0
   11.0198   46.0481   33.4567 N   0  0  0  0  0  0  0  0  0  0  0  0
    9.7501   44.8507   31.6922 C   0  0  0  0  0  0  0  0  0  0  0  0
    8.7942   45.8416   31.0867 C   0  0  0  0  0  0  0  0  0  0  0  0
    7.4074   45.6012   31.1003 C   0  0  0  0  0  0  0  0  0  0  0  0
    9.2832   46.9891   30.4450 C   0  0  0  0  0  0  0  0  0  0  0  0
    6.5279   46.5023   30.4847 C   0  0  0  0  0  0  0  0  0  0  0  0
    8.4037   47.8904   29.8335 C   0  0  0  0  0  0  0  0  0  0  0  0
    7.0146   47.6510   29.8461 C   0  0  0  0  0  0  0  0  0  0  0  0
    6.0891   48.5178   29.2420 O   0  0  0  0  0  0  0  0  0  0  0  0
    6.4215   49.6795   28.4768 C   0  0  2  0  0  0  0  0  0  0  0  0
    5.1418   50.4655   28.1967 C   0  0  0  0  0  0  0  0  0  0  0  0
    7.0859   49.2843   27.1688 C   0  0  0  0  0  0  0  0  0  0  0  0
    6.5356   48.2094   26.4283 C   0  0  0  0  0  0  0  0  0  0  0  0
    8.2773   49.9257   26.6943 C   0  0  0  0  0  0  0  0  0  0  0  0
    7.1941   47.7886   25.2806 C   0  0  0  0  0  0  0  0  0  0  0  0
    8.9126   49.4429   25.5269 C   0  0  0  0  0  0  0  0  0  0  0  0
    8.8378   51.0644   27.3664 N   0  0  0  0  0  0  0  0  0  0  0  0
    6.8502   46.7643   24.4197 O   0  0  0  0  0  0  0  0  0  0  0  0
    8.3350   48.3757   24.8518 C   0  0  0  0  0  0  0  0  0  0  0  0
    8.0330   52.1229   27.7186 O   0  0  0  0  0  0  0  0  0  0  0  0
   10.0768   51.2013   27.4335 O   0  0  0  0  0  0  0  0  0  0  0  0
    7.8399   46.7067   23.3833 C   0  0  0  0  0  0  0  0  0  0  0  0
    8.7690   47.7530   23.6974 O   0  0  0  0  0  0  0  0  0  0  0  0
    8.8115   40.1834   34.2125 O   0  0  0  0  0  0  0  0  0  0  0  0
   11.2402   40.7936   33.3673 O   0  0  0  0  0  0  0  0  0  0  0  0
   10.9134   40.6864   31.9955 C   0  0  0  0  0  0  0  0  0  0  0  0
   11.5166   39.3786   31.4404 C   0  0  0  0  0  0  0  0  0  0  0  0
   12.7486   39.0848   32.0734 O   0  0  0  0  0  0  0  0  0  0  0  0
   10.6039   38.1883   31.6669 C   0  0  0  0  0  0  0  0  0  0  0  0
   12.9329   37.6775   32.0284 C   0  0  0  0  0  0  0  0  0  0  0  0
    9.6373   38.0938   30.6484 O   0  0  0  0  0  0  0  0  0  0  0  0
   11.5737   37.0140   31.7055 C   0  0  0  0  0  0  0  0  0  0  0  0
   13.4853   37.2120   33.3238 N   0  0  0  0  0  0  0  0  0  0  0  0
   11.6210   36.3378   30.4683 O   0  0  0  0  0  0  0  0  0  0  0  0
   14.4804   36.3319   33.5726 C   0  0  0  0  0  0  0  0  0  0  0  0
   13.1141   37.6274   34.5689 C   0  0  0  0  0  0  0  0  0  0  0  0
   15.2076   35.6152   32.6740 N   0  0  0  0  0  0  0  0  0  0  0  0
   14.6761   36.2306   34.9181 C   0  0  0  0  0  0  0  0  0  0  0  0
   13.8218   37.0451   35.5783 N   0  0  0  0  0  0  0  0  0  0  0  0
   16.1642   34.7600   33.1548 C   0  0  0  0  0  0  0  0  0  0  0  0
   15.6528   35.3507   35.4131 C   0  0  0  0  0  0  0  0  0  0  0  0
   16.3796   34.6315   34.5043 N   0  0  0  0  0  0  0  0  0  0  0  0
   15.9001   35.1933   36.8090 N   0  0  0  0  0  0  0  0  0  0  0  0
    9.0099   45.4349   33.6669 H   0  0  0  0  0  0  0  0  0  0  0  0
   11.1134   46.1992   34.4880 H   0  0  0  0  0  0  0  0  0  0  0  0
   11.9348   45.6933   33.0922 H   0  0  0  0  0  0  0  0  0  0  0  0
   10.7304   44.8921   31.1674 H   0  0  0  0  0  0  0  0  0  0  0  0
    9.3508   43.8342   31.4762 H   0  0  0  0  0  0  0  0  0  0  0  0
    7.0108   44.7162   31.5824 H   0  0  0  0  0  0  0  0  0  0  0  0
   10.3475   47.1887   30.4174 H   0  0  0  0  0  0  0  0  0  0  0  0
    5.4636   46.3046   30.5012 H   0  0  0  0  0  0  0  0  0  0  0  0
    8.8170   48.7669   29.3562 H   0  0  0  0  0  0  0  0  0  0  0  0
    7.0800   50.3232   29.0954 H   0  0  0  0  0  0  0  0  0  0  0  0
    4.6794   50.7822   29.1555 H   0  0  0  0  0  0  0  0  0  0  0  0
    4.4108   49.8393   27.6418 H   0  0  0  0  0  0  0  0  0  0  0  0
    5.3680   51.3732   27.5979 H   0  0  0  0  0  0  0  0  0  0  0  0
    5.6347   47.7028   26.7505 H   0  0  0  0  0  0  0  0  0  0  0  0
    9.8154   49.9022   25.1454 H   0  0  0  0  0  0  0  0  0  0  0  0
    7.3716   46.8942   22.3943 H   0  0  0  0  0  0  0  0  0  0  0  0
    8.3528   45.7222   23.3963 H   0  0  0  0  0  0  0  0  0  0  0  0
   11.3831   41.5437   31.4675 H   0  0  0  0  0  0  0  0  0  0  0  0
    9.8226   40.7226   31.7629 H   0  0  0  0  0  0  0  0  0  0  0  0
   11.6978   39.5037   30.3478 H   0  0  0  0  0  0  0  0  0  0  0  0
   10.1084   38.2785   32.6626 H   0  0  0  0  0  0  0  0  0  0  0  0
   13.6638   37.4471   31.2214 H   0  0  0  0  0  0  0  0  0  0  0  0
    8.9763   37.4190   30.9532 H   0  0  0  0  0  0  0  0  0  0  0  0
   11.2821   36.3054   32.5172 H   0  0  0  0  0  0  0  0  0  0  0  0
   10.8658   35.6935   30.4652 H   0  0  0  0  0  0  0  0  0  0  0  0
   12.3293   38.3523   34.7444 H   0  0  0  0  0  0  0  0  0  0  0  0
   16.7561   34.1778   32.4621 H   0  0  0  0  0  0  0  0  0  0  0  0
   15.3533   35.7361   37.5139 H   0  0  0  0  0  0  0  0  0  0  0  0
   16.6345   34.5300   37.1416 H   0  0  0  0  0  0  0  0  0  0  0  0
  1  2  2  0
  1  3  1  0
  3  4  1  0
  4  5  1  0
  6  1  1  0
  7  6  1  0
  6  8  1  0
  8  9  1  0
  9 10  2  0
 11  9  1  0
 10 12  1  0
 13 11  2  0
 12 14  2  0
 14 13  1  0
 14 15  1  0
 15 16  1  0
 16 17  1  0
 16 18  1  0
 18 19  2  0
 20 18  1  0
 19 21  1  0
 22 20  2  0
 20 23  1  0
 21 24  1  0
 21 25  2  0
 25 22  1  0
 23 26  1  0
 23 27  2  0
 24 28  1  0
 25 29  1  0
 28 29  1  0
  4 30  2  0
  4 31  1  0
 32 31  1  0
 32 33  1  0
 33 34  1  0
 33 35  1  0
 34 36  1  0
 35 37  1  0
 35 38  1  0
 38 36  1  0
 36 39  1  0
 38 40  1  0
 41 39  1  0
 42 39  1  0
 43 41  2  0
 41 44  1  0
 45 42  2  0
 46 43  1  0
 44 47  2  0
 44 45  1  0
 48 46  2  0
 48 47  1  0
 47 49  1  0
  6 50  1  1
  7 51  1  0
  7 52  1  0
  8 53  1  0
  8 54  1  0
 10 55  1  0
 11 56  1  0
 12 57  1  0
 13 58  1  0
 16 59  1  1
 17 60  1  0
 17 61  1  0
 17 62  1  0
 19 63  1  0
 22 64  1  0
 28 65  1  0
 28 66  1  0
 32 67  1  0
 32 68  1  0
 33 69  1  0
 35 70  1  0
 36 71  1  0
 37 72  1  0
 38 73  1  0
 40 74  1  0
 42 75  1  0
 46 76  1  0
 49 77  1  0
 49 78  1  0
M  CHG  3   5  -1  23   1  26  -1
M  END
>  <EmbedRMS>  (128) 
0.0834640121375

$$$$

     RDKit          3D

 78 83  0  0  0  0  0  0  0  0999 V2000
   10.2804   43.7664   33.8251 C   0  0  0  0  0  0  0  0  0  0  0  0
   11.4111   43.5918   34.3667 O   0  0  0  0  0  0  0  0  0  0  0  0
    9.3618   42.7249   33.7346 O   0  0  0  0  0  0  0  0  0  0  0  0
    9.8899   41.2266   34.2940 P   0  0  0  0  0  0  0  0  0  0  0  0
   10.3735   41.4566   35.8832 O   0  0  0  0  0  0  0  0  0  0  0  0
    9.9459   45.0736   33.2113 C   0  0  1  0  0  0  0  0  0  0  0  0
   11.0267   46.0291   33.4706 N   0  0  0  0  0  0  0  0  0  0  0  0
    9.7535   44.8538   31.6951 C   0  0  0  0  0  0  0  0  0  0  0  0
    8.7954   45.8411   31.0851 C   0  0  0  0  0  0  0  0  0  0  0  0
    7.4089   45.6005   31.1007 C   0  0  0  0  0  0  0  0  0  0  0  0
    9.2827   46.9875   30.4399 C   0  0  0  0  0  0  0  0  0  0  0  0
    6.5287   46.5007   30.4850 C   0  0  0  0  0  0  0  0  0  0  0  0
    8.4026   47.8889   29.8296 C   0  0  0  0  0  0  0  0  0  0  0  0
    7.0128   47.6520   29.8483 C   0  0  0  0  0  0  0  0  0  0  0  0
    6.0801   48.5131   29.2460 O   0  0  0  0  0  0  0  0  0  0  0  0
    6.3717   49.7589   28.6055 C   0  0  2  0  0  0  0  0  0  0  0  0
    6.6299   50.8278   29.6792 C   0  0  0  0  0  0  0  0  0  0  0  0
    5.2321   50.0810   27.6400 C   0  0  0  0  0  0  0  0  0  0  0  0
    4.4994   51.2977   27.7336 C   0  0  0  0  0  0  0  0  0  0  0  0
    4.8532   49.1260   26.6328 C   0  0  0  0  0  0  0  0  0  0  0  0
    3.4387   51.5081   26.8627 C   0  0  0  0  0  0  0  0  0  0  0  0
    3.7535   49.3937   25.7856 C   0  0  0  0  0  0  0  0  0  0  0  0
    5.5546   47.8810   26.4696 N   0  0  0  0  0  0  0  0  0  0  0  0
    2.5998   52.6032   26.7823 O   0  0  0  0  0  0  0  0  0  0  0  0
    3.0799   50.5962   25.9328 C   0  0  0  0  0  0  0  0  0  0  0  0
    6.9283   47.8554   26.4111 O   0  0  0  0  0  0  0  0  0  0  0  0
    4.9225   46.8436   26.1819 O   0  0  0  0  0  0  0  0  0  0  0  0
    1.6540   52.3604   25.7322 C   0  0  0  0  0  0  0  0  0  0  0  0
    1.9965   51.0671   25.2161 O   0  0  0  0  0  0  0  0  0  0  0  0
    8.8123   40.1844   34.2134 O   0  0  0  0  0  0  0  0  0  0  0  0
   11.2402   40.7944   33.3689 O   0  0  0  0  0  0  0  0  0  0  0  0
   10.9142   40.6898   31.9971 C   0  0  0  0  0  0  0  0  0  0  0  0
   11.5260   39.3884   31.4376 C   0  0  0  0  0  0  0  0  0  0  0  0
   12.7504   39.0888   32.0816 O   0  0  0  0  0  0  0  0  0  0  0  0
   10.6114   38.1909   31.6460 C   0  0  0  0  0  0  0  0  0  0  0  0
   12.9357   37.6812   32.0303 C   0  0  0  0  0  0  0  0  0  0  0  0
    9.6145   38.0858   30.6534 O   0  0  0  0  0  0  0  0  0  0  0  0
   11.5769   37.0148   31.7012 C   0  0  0  0  0  0  0  0  0  0  0  0
   13.4849   37.2112   33.3247 N   0  0  0  0  0  0  0  0  0  0  0  0
   11.6193   36.3261   30.4724 O   0  0  0  0  0  0  0  0  0  0  0  0
   14.4802   36.3313   33.5730 C   0  0  0  0  0  0  0  0  0  0  0  0
   13.1141   37.6268   34.5698 C   0  0  0  0  0  0  0  0  0  0  0  0
   15.2075   35.6151   32.6741 N   0  0  0  0  0  0  0  0  0  0  0  0
   14.6761   36.2300   34.9184 C   0  0  0  0  0  0  0  0  0  0  0  0
   13.8220   37.0445   35.5789 N   0  0  0  0  0  0  0  0  0  0  0  0
   16.1642   34.7600   33.1547 C   0  0  0  0  0  0  0  0  0  0  0  0
   15.6529   35.3503   35.4131 C   0  0  0  0  0  0  0  0  0  0  0  0
   16.3798   34.6314   34.5042 N   0  0  0  0  0  0  0  0  0  0  0  0
   15.9004   35.1930   36.8090 N   0  0  0  0  0  0  0  0  0  0  0  0
    8.9996   45.4382   33.6725 H   0  0  0  0  0  0  0  0  0  0  0  0
   10.7764   46.9368   33.0157 H   0  0  0  0  0  0  0  0  0  0  0  0
   11.0505   46.2277   34.4980 H   0  0  0  0  0  0  0  0  0  0  0  0
    9.3634   43.8352   31.4716 H   0  0  0  0  0  0  0  0  0  0  0  0
   10.7405   44.9069   31.1835 H   0  0  0  0  0  0  0  0  0  0  0  0
    7.0132   44.7159   31.5843 H   0  0  0  0  0  0  0  0  0  0  0  0
   10.3471   47.1853   30.4061 H   0  0  0  0  0  0  0  0  0  0  0  0
    5.4646   46.3021   30.5029 H   0  0  0  0  0  0  0  0  0  0  0  0
    8.8203   48.7590   29.3451 H   0  0  0  0  0  0  0  0  0  0  0  0
    7.2934   49.6754   27.9952 H   0  0  0  0  0  0  0  0  0  0  0  0
    5.7287   50.9683   30.3134 H   0  0  0  0  0  0  0  0  0  0  0  0
    7.4651   50.5183   30.3402 H   0  0  0  0  0  0  0  0  0  0  0  0
    6.9182   51.7908   29.2067 H   0  0  0  0  0  0  0  0  0  0  0  0
    4.7237   52.0654   28.4590 H   0  0  0  0  0  0  0  0  0  0  0  0
    3.4446   48.6896   25.0237 H   0  0  0  0  0  0  0  0  0  0  0  0
    1.7561   53.1293   24.9379 H   0  0  0  0  0  0  0  0  0  0  0  0
    0.6216   52.3491   26.1401 H   0  0  0  0  0  0  0  0  0  0  0  0
    9.8232   40.7190   31.7645 H   0  0  0  0  0  0  0  0  0  0  0  0
   11.3777   41.5525   31.4723 H   0  0  0  0  0  0  0  0  0  0  0  0
   11.7283   39.5311   30.3515 H   0  0  0  0  0  0  0  0  0  0  0  0
   10.1127   38.2734   32.6376 H   0  0  0  0  0  0  0  0  0  0  0  0
   13.6692   37.4566   31.2242 H   0  0  0  0  0  0  0  0  0  0  0  0
   10.0533   38.1118   29.7636 H   0  0  0  0  0  0  0  0  0  0  0  0
   11.2607   36.3148   32.5102 H   0  0  0  0  0  0  0  0  0  0  0  0
   12.1496   35.5023   30.6324 H   0  0  0  0  0  0  0  0  0  0  0  0
   12.3301   38.3524   34.7455 H   0  0  0  0  0  0  0  0  0  0  0  0
   16.7563   34.1781   32.4619 H   0  0  0  0  0  0  0  0  0  0  0  0
   16.6351   34.5298   37.1415 H   0  0  0  0  0  0  0  0  0  0  0  0
   15.3536   35.7357   37.5139 H   0  0  0  0  0  0  0  0  0  0  0  0
  1  2  2  0
  1  3  1  0
  3  4  1  0
  4  5  1  0
  6  1  1  0
  7  6  1  0
  6  8  1  0
  8  9  1  0
  9 10  2  0
 11  9  1  0
 10 12  1  0
 13 11  2  0
 12 14  2  0
 14 13  1  0
 14 15  1  0
 15 16  1  0
 16 17  1  0
 16 18  1  0
 18 19  2  0
 20 18  1  0
 19 21  1  0
 22 20  2  0
 20 23  1  0
 21 24  1  0
 21 25  2  0
 25 22  1  0
 23 26  1  0
 23 27  2  0
 24 28  1  0
 25 29  1  0
 28 29  1  0
  4 30  2  0
  4 31  1  0
 32 31  1  0
 32 33  1  0
 33 34  1  0
 33 35  1  0
 34 36  1  0
 35 37  1  0
 35 38  1  0
 38 36  1  0
 36 39  1  0
 38 40  1  0
 41 39  1  0
 42 39  1  0
 43 41  2  0
 41 44  1  0
 45 42  2  0
 46 43  1  0
 44 47  2  0
 44 45  1  0
 48 46  2  0
 48 47  1  0
 47 49  1  0
  6 50  1  1
  7 51  1  0
  7 52  1  0
  8 53  1  0
  8 54  1  0
 10 55  1  0
 11 56  1  0
 12 57  1  0
 13 58  1  0
 16 59  1  6
 17 60  1  0
 17 61  1  0
 17 62  1  0
 19 63  1  0
 22 64  1  0
 28 65  1  0
 28 66  1  0
 32 67  1  0
 32 68  1  0
 33 69  1  0
 35 70  1  0
 36 71  1  0
 37 72  1  0
 38 73  1  0
 40 74  1  0
 42 75  1  0
 46 76  1  0
 49 77  1  0
 49 78  1  0
M  CHG  3   5  -1  23   1  26  -1
M  END
>  <EmbedRMS>  (129) 
0.0814358219121

$$$$

     RDKit          3D

 78 83  0  0  0  0  0  0  0  0999 V2000
   10.2839   43.7626   33.8276 C   0  0  0  0  0  0  0  0  0  0  0  0
   11.4103   43.5864   34.3767 O   0  0  0  0  0  0  0  0  0  0  0  0
    9.3634   42.7234   33.7351 O   0  0  0  0  0  0  0  0  0  0  0  0
    9.8899   41.2247   34.2940 P   0  0  0  0  0  0  0  0  0  0  0  0
   10.3724   41.4545   35.8837 O   0  0  0  0  0  0  0  0  0  0  0  0
    9.9548   45.0700   33.2064 C   0  0  1  0  0  0  0  0  0  0  0  0
   11.0196   46.0482   33.4572 N   0  0  0  0  0  0  0  0  0  0  0  0
    9.7506   44.8512   31.6923 C   0  0  0  0  0  0  0  0  0  0  0  0
    8.7944   45.8418   31.0869 C   0  0  0  0  0  0  0  0  0  0  0  0
    7.4077   45.6002   31.1000 C   0  0  0  0  0  0  0  0  0  0  0  0
    9.2827   46.9890   30.4440 C   0  0  0  0  0  0  0  0  0  0  0  0
    6.5258   46.4992   30.4847 C   0  0  0  0  0  0  0  0  0  0  0  0
    8.4010   47.8878   29.8326 C   0  0  0  0  0  0  0  0  0  0  0  0
    7.0194   47.6563   29.8477 C   0  0  0  0  0  0  0  0  0  0  0  0
    6.1813   48.5986   29.2289 O   0  0  0  0  0  0  0  0  0  0  0  0
    4.7526   48.5544   29.2219 C   0  0  2  0  0  0  0  0  0  0  0  0
    4.2056   49.5930   28.2433 C   0  0  0  0  0  0  0  0  0  0  0  0
    4.1616   48.7626   30.6090 C   0  0  0  0  0  0  0  0  0  0  0  0
    2.9601   48.0758   30.9088 C   0  0  0  0  0  0  0  0  0  0  0  0
    4.7793   49.5690   31.6285 C   0  0  0  0  0  0  0  0  0  0  0  0
    2.4328   48.1816   32.1885 C   0  0  0  0  0  0  0  0  0  0  0  0
    4.2029   49.6234   32.9177 C   0  0  0  0  0  0  0  0  0  0  0  0
    5.9812   50.3184   31.3923 N   0  0  0  0  0  0  0  0  0  0  0  0
    1.2893   47.5965   32.6973 O   0  0  0  0  0  0  0  0  0  0  0  0
    3.0301   48.9191   33.1515 C   0  0  0  0  0  0  0  0  0  0  0  0
    6.9363   50.4031   32.3789 O   0  0  0  0  0  0  0  0  0  0  0  0
    6.0728   51.0701   30.4012 O   0  0  0  0  0  0  0  0  0  0  0  0
    1.1620   47.9944   34.0692 C   0  0  0  0  0  0  0  0  0  0  0  0
    2.2944   48.8385   34.3182 O   0  0  0  0  0  0  0  0  0  0  0  0
    8.8119   40.1831   34.2121 O   0  0  0  0  0  0  0  0  0  0  0  0
   11.2416   40.7932   33.3699 O   0  0  0  0  0  0  0  0  0  0  0  0
   10.9186   40.6909   31.9972 C   0  0  0  0  0  0  0  0  0  0  0  0
   11.5172   39.3814   31.4407 C   0  0  0  0  0  0  0  0  0  0  0  0
   12.7493   39.0855   32.0727 O   0  0  0  0  0  0  0  0  0  0  0  0
   10.6023   38.1907   31.6665 C   0  0  0  0  0  0  0  0  0  0  0  0
   12.9319   37.6781   32.0281 C   0  0  0  0  0  0  0  0  0  0  0  0
    9.6392   38.0797   30.6452 O   0  0  0  0  0  0  0  0  0  0  0  0
   11.5715   37.0165   31.7056 C   0  0  0  0  0  0  0  0  0  0  0  0
   13.4846   37.2121   33.3235 N   0  0  0  0  0  0  0  0  0  0  0  0
   11.6187   36.3383   30.4694 O   0  0  0  0  0  0  0  0  0  0  0  0
   14.4801   36.3321   33.5724 C   0  0  0  0  0  0  0  0  0  0  0  0
   13.1137   37.6275   34.5687 C   0  0  0  0  0  0  0  0  0  0  0  0
   15.2073   35.6153   32.6738 N   0  0  0  0  0  0  0  0  0  0  0  0
   14.6759   36.2308   34.9179 C   0  0  0  0  0  0  0  0  0  0  0  0
   13.8216   37.0452   35.5780 N   0  0  0  0  0  0  0  0  0  0  0  0
   16.1640   34.7602   33.1546 C   0  0  0  0  0  0  0  0  0  0  0  0
   15.6526   35.3508   35.4129 C   0  0  0  0  0  0  0  0  0  0  0  0
   16.3794   34.6317   34.5041 N   0  0  0  0  0  0  0  0  0  0  0  0
   15.8999   35.1935   36.8088 N   0  0  0  0  0  0  0  0  0  0  0  0
    9.0097   45.4348   33.6669 H   0  0  0  0  0  0  0  0  0  0  0  0
   11.9348   45.6935   33.0931 H   0  0  0  0  0  0  0  0  0  0  0  0
   11.1129   46.1994   34.4885 H   0  0  0  0  0  0  0  0  0  0  0  0
   10.7310   44.8933   31.1677 H   0  0  0  0  0  0  0  0  0  0  0  0
    9.3520   43.8345   31.4758 H   0  0  0  0  0  0  0  0  0  0  0  0
    7.0127   44.7144   31.5823 H   0  0  0  0  0  0  0  0  0  0  0  0
   10.3467   47.1894   30.4147 H   0  0  0  0  0  0  0  0  0  0  0  0
    5.4675   46.2823   30.5129 H   0  0  0  0  0  0  0  0  0  0  0  0
    8.7933   48.7719   29.3461 H   0  0  0  0  0  0  0  0  0  0  0  0
    4.4448   47.5599   28.8273 H   0  0  0  0  0  0  0  0  0  0  0  0
    4.4365   50.6249   28.5749 H   0  0  0  0  0  0  0  0  0  0  0  0
    3.1030   49.4884   28.1544 H   0  0  0  0  0  0  0  0  0  0  0  0
    4.6536   49.4344   27.2394 H   0  0  0  0  0  0  0  0  0  0  0  0
    2.4594   47.4634   30.1693 H   0  0  0  0  0  0  0  0  0  0  0  0
    4.6474   50.2137   33.7086 H   0  0  0  0  0  0  0  0  0  0  0  0
    1.1946   47.1042   34.7319 H   0  0  0  0  0  0  0  0  0  0  0  0
    0.2201   48.5629   34.2185 H   0  0  0  0  0  0  0  0  0  0  0  0
    9.8300   40.7410   31.7610 H   0  0  0  0  0  0  0  0  0  0  0  0
   11.3971   41.5459   31.4735 H   0  0  0  0  0  0  0  0  0  0  0  0
   11.6974   39.5067   30.3480 H   0  0  0  0  0  0  0  0  0  0  0  0
   10.1077   38.2647   32.6645 H   0  0  0  0  0  0  0  0  0  0  0  0
   13.6621   37.4467   31.2208 H   0  0  0  0  0  0  0  0  0  0  0  0
    8.8974   38.6943   30.8831 H   0  0  0  0  0  0  0  0  0  0  0  0
   11.2806   36.3073   32.5170 H   0  0  0  0  0  0  0  0  0  0  0  0
   10.8492   35.7110   30.4585 H   0  0  0  0  0  0  0  0  0  0  0  0
   12.3290   38.3524   34.7444 H   0  0  0  0  0  0  0  0  0  0  0  0
   16.7559   34.1780   32.4619 H   0  0  0  0  0  0  0  0  0  0  0  0
   16.6344   34.5301   37.1414 H   0  0  0  0  0  0  0  0  0  0  0  0
   15.3531   35.7363   37.5137 H   0  0  0  0  0  0  0  0  0  0  0  0
  1  2  2  0
  1  3  1  0
  3  4  1  0
  4  5  1  0
  6  1  1  0
  7  6  1  0
  6  8  1  0
  8  9  1  0
  9 10  2  0
 11  9  1  0
 10 12  1  0
 13 11  2  0
 12 14  2  0
 14 13  1  0
 14 15  1  0
 15 16  1  0
 16 17  1  0
 16 18  1  0
 18 19  2  0
 20 18  1  0
 19 21  1  0
 22 20  2  0
 20 23  1  0
 21 24  1  0
 21 25  2  0
 25 22  1  0
 23 26  1  0
 23 27  2  0
 24 28  1  0
 25 29  1  0
 28 29  1  0
  4 30  2  0
  4 31  1  0
 32 31  1  0
 32 33  1  0
 33 34  1  0
 33 35  1  0
 34 36  1  0
 35 37  1  0
 35 38  1  0
 38 36  1  0
 36 39  1  0
 38 40  1  0
 41 39  1  0
 42 39  1  0
 43 41  2  0
 41 44  1  0
 45 42  2  0
 46 43  1  0
 44 47  2  0
 44 45  1  0
 48 46  2  0
 48 47  1  0
 47 49  1  0
  6 50  1  1
  7 51  1  0
  7 52  1  0
  8 53  1  0
  8 54  1  0
 10 55  1  0
 11 56  1  0
 12 57  1  0
 13 58  1  0
 16 59  1  6
 17 60  1  0
 17 61  1  0
 17 62  1  0
 19 63  1  0
 22 64  1  0
 28 65  1  0
 28 66  1  0
 32 67  1  0
 32 68  1  0
 33 69  1  0
 35 70  1  0
 36 71  1  0
 37 72  1  0
 38 73  1  0
 40 74  1  0
 42 75  1  0
 46 76  1  0
 49 77  1  0
 49 78  1  0
M  CHG  3   5  -1  23   1  26  -1
M  END
>  <EmbedRMS>  (130) 
0.0838249596585

$$$$

     RDKit          3D

 78 83  0  0  0  0  0  0  0  0999 V2000
   10.2840   43.7625   33.8275 C   0  0  0  0  0  0  0  0  0  0  0  0
   11.4104   43.5864   34.3767 O   0  0  0  0  0  0  0  0  0  0  0  0
    9.3634   42.7233   33.7351 O   0  0  0  0  0  0  0  0  0  0  0  0
    9.8899   41.2246   34.2940 P   0  0  0  0  0  0  0  0  0  0  0  0
   10.3724   41.4544   35.8837 O   0  0  0  0  0  0  0  0  0  0  0  0
    9.9548   45.0698   33.2063 C   0  0  1  0  0  0  0  0  0  0  0  0
   11.0198   46.0480   33.4568 N   0  0  0  0  0  0  0  0  0  0  0  0
    9.7501   44.8507   31.6923 C   0  0  0  0  0  0  0  0  0  0  0  0
    8.7942   45.8417   31.0868 C   0  0  0  0  0  0  0  0  0  0  0  0
    7.4074   45.6013   31.1005 C   0  0  0  0  0  0  0  0  0  0  0  0
    9.2832   46.9891   30.4451 C   0  0  0  0  0  0  0  0  0  0  0  0
    6.5279   46.5023   30.4849 C   0  0  0  0  0  0  0  0  0  0  0  0
    8.4037   47.8902   29.8333 C   0  0  0  0  0  0  0  0  0  0  0  0
    7.0147   47.6508   29.8458 C   0  0  0  0  0  0  0  0  0  0  0  0
    6.0893   48.5169   29.2405 O   0  0  0  0  0  0  0  0  0  0  0  0
    6.4223   49.6744   28.4690 C   0  0  2  0  0  0  0  0  0  0  0  0
    5.1430   50.4598   28.1853 C   0  0  0  0  0  0  0  0  0  0  0  0
    7.0857   49.2716   27.1629 C   0  0  0  0  0  0  0  0  0  0  0  0
    6.5340   48.1933   26.4283 C   0  0  0  0  0  0  0  0  0  0  0  0
    8.2782   49.9085   26.6850 C   0  0  0  0  0  0  0  0  0  0  0  0
    7.1922   47.7650   25.2833 C   0  0  0  0  0  0  0  0  0  0  0  0
    8.9129   49.4183   25.5205 C   0  0  0  0  0  0  0  0  0  0  0  0
    8.8401   51.0502   27.3507 N   0  0  0  0  0  0  0  0  0  0  0  0
    6.8471   46.7361   24.4283 O   0  0  0  0  0  0  0  0  0  0  0  0
    8.3340   48.3480   24.8514 C   0  0  0  0  0  0  0  0  0  0  0  0
    8.0366   52.1117   27.6972 O   0  0  0  0  0  0  0  0  0  0  0  0
   10.0792   51.1860   27.4172 O   0  0  0  0  0  0  0  0  0  0  0  0
    7.8370   46.6710   23.3925 C   0  0  0  0  0  0  0  0  0  0  0  0
    8.7675   47.7180   23.7008 O   0  0  0  0  0  0  0  0  0  0  0  0
    8.8119   40.1831   34.2120 O   0  0  0  0  0  0  0  0  0  0  0  0
   11.2416   40.7932   33.3699 O   0  0  0  0  0  0  0  0  0  0  0  0
   10.9187   40.6909   31.9972 C   0  0  0  0  0  0  0  0  0  0  0  0
   11.5172   39.3814   31.4407 C   0  0  0  0  0  0  0  0  0  0  0  0
   12.7493   39.0855   32.0727 O   0  0  0  0  0  0  0  0  0  0  0  0
   10.6023   38.1907   31.6665 C   0  0  0  0  0  0  0  0  0  0  0  0
   12.9319   37.6781   32.0281 C   0  0  0  0  0  0  0  0  0  0  0  0
    9.6392   38.0797   30.6451 O   0  0  0  0  0  0  0  0  0  0  0  0
   11.5715   37.0165   31.7056 C   0  0  0  0  0  0  0  0  0  0  0  0
   13.4847   37.2121   33.3235 N   0  0  0  0  0  0  0  0  0  0  0  0
   11.6187   36.3383   30.4694 O   0  0  0  0  0  0  0  0  0  0  0  0
   14.4801   36.3321   33.5724 C   0  0  0  0  0  0  0  0  0  0  0  0
   13.1137   37.6275   34.5687 C   0  0  0  0  0  0  0  0  0  0  0  0
   15.2073   35.6153   32.6738 N   0  0  0  0  0  0  0  0  0  0  0  0
   14.6759   36.2308   34.9179 C   0  0  0  0  0  0  0  0  0  0  0  0
   13.8216   37.0452   35.5781 N   0  0  0  0  0  0  0  0  0  0  0  0
   16.1640   34.7602   33.1546 C   0  0  0  0  0  0  0  0  0  0  0  0
   15.6526   35.3508   35.4129 C   0  0  0  0  0  0  0  0  0  0  0  0
   16.3794   34.6317   34.5041 N   0  0  0  0  0  0  0  0  0  0  0  0
   15.8999   35.1935   36.8088 N   0  0  0  0  0  0  0  0  0  0  0  0
    9.0099   45.4347   33.6670 H   0  0  0  0  0  0  0  0  0  0  0  0
   11.1134   46.1992   34.4880 H   0  0  0  0  0  0  0  0  0  0  0  0
   11.9348   45.6933   33.0923 H   0  0  0  0  0  0  0  0  0  0  0  0
    9.3508   43.8342   31.4762 H   0  0  0  0  0  0  0  0  0  0  0  0
   10.7304   44.8921   31.1674 H   0  0  0  0  0  0  0  0  0  0  0  0
    7.0107   44.7163   31.5827 H   0  0  0  0  0  0  0  0  0  0  0  0
   10.3475   47.1887   30.4174 H   0  0  0  0  0  0  0  0  0  0  0  0
    5.4636   46.3046   30.5013 H   0  0  0  0  0  0  0  0  0  0  0  0
    8.8170   48.7666   29.3558 H   0  0  0  0  0  0  0  0  0  0  0  0
    7.0815   50.3208   29.0840 H   0  0  0  0  0  0  0  0  0  0  0  0
    5.3696   51.3642   27.5817 H   0  0  0  0  0  0  0  0  0  0  0  0
    4.6812   50.7819   29.1427 H   0  0  0  0  0  0  0  0  0  0  0  0
    4.4113   49.8312   27.6340 H   0  0  0  0  0  0  0  0  0  0  0  0
    5.6324   47.6896   26.7534 H   0  0  0  0  0  0  0  0  0  0  0  0
    9.8166   49.8740   25.1366 H   0  0  0  0  0  0  0  0  0  0  0  0
    8.3486   45.6859   23.4116 H   0  0  0  0  0  0  0  0  0  0  0  0
    7.3693   46.8533   22.4023 H   0  0  0  0  0  0  0  0  0  0  0  0
   11.3972   41.5459   31.4735 H   0  0  0  0  0  0  0  0  0  0  0  0
    9.8300   40.7410   31.7610 H   0  0  0  0  0  0  0  0  0  0  0  0
   11.6974   39.5067   30.3480 H   0  0  0  0  0  0  0  0  0  0  0  0
   10.1077   38.2647   32.6645 H   0  0  0  0  0  0  0  0  0  0  0  0
   13.6621   37.4467   31.2208 H   0  0  0  0  0  0  0  0  0  0  0  0
    8.8975   38.6944   30.8830 H   0  0  0  0  0  0  0  0  0  0  0  0
   11.2806   36.3073   32.5170 H   0  0  0  0  0  0  0  0  0  0  0  0
   10.8493   35.7110   30.4585 H   0  0  0  0  0  0  0  0  0  0  0  0
   12.3290   38.3524   34.7444 H   0  0  0  0  0  0  0  0  0  0  0  0
   16.7559   34.1780   32.4620 H   0  0  0  0  0  0  0  0  0  0  0  0
   16.6344   34.5301   37.1414 H   0  0  0  0  0  0  0  0  0  0  0  0
   15.3531   35.7362   37.5137 H   0  0  0  0  0  0  0  0  0  0  0  0
  1  2  2  0
  1  3  1  0
  3  4  1  0
  4  5  1  0
  6  1  1  0
  7  6  1  0
  6  8  1  0
  8  9  1  0
  9 10  2  0
 11  9  1  0
 10 12  1  0
 13 11  2  0
 12 14  2  0
 14 13  1  0
 14 15  1  0
 15 16  1  0
 16 17  1  0
 16 18  1  0
 18 19  2  0
 20 18  1  0
 19 21  1  0
 22 20  2  0
 20 23  1  0
 21 24  1  0
 21 25  2  0
 25 22  1  0
 23 26  1  0
 23 27  2  0
 24 28  1  0
 25 29  1  0
 28 29  1  0
  4 30  2  0
  4 31  1  0
 32 31  1  0
 32 33  1  0
 33 34  1  0
 33 35  1  0
 34 36  1  0
 35 37  1  0
 35 38  1  0
 38 36  1  0
 36 39  1  0
 38 40  1  0
 41 39  1  0
 42 39  1  0
 43 41  2  0
 41 44  1  0
 45 42  2  0
 46 43  1  0
 44 47  2  0
 44 45  1  0
 48 46  2  0
 48 47  1  0
 47 49  1  0
  6 50  1  1
  7 51  1  0
  7 52  1  0
  8 53  1  0
  8 54  1  0
 10 55  1  0
 11 56  1  0
 12 57  1  0
 13 58  1  0
 16 59  1  1
 17 60  1  0
 17 61  1  0
 17 62  1  0
 19 63  1  0
 22 64  1  0
 28 65  1  0
 28 66  1  0
 32 67  1  0
 32 68  1  0
 33 69  1  0
 35 70  1  0
 36 71  1  0
 37 72  1  0
 38 73  1  0
 40 74  1  0
 42 75  1  0
 46 76  1  0
 49 77  1  0
 49 78  1  0
M  CHG  3   5  -1  23   1  26  -1
M  END
>  <EmbedRMS>  (131) 
0.0838431516898

$$$$

     RDKit          3D

 78 83  0  0  0  0  0  0  0  0999 V2000
   10.2804   43.7664   33.8251 C   0  0  0  0  0  0  0  0  0  0  0  0
   11.4111   43.5918   34.3667 O   0  0  0  0  0  0  0  0  0  0  0  0
    9.3619   42.7249   33.7346 O   0  0  0  0  0  0  0  0  0  0  0  0
    9.8900   41.2266   34.2940 P   0  0  0  0  0  0  0  0  0  0  0  0
   10.3735   41.4566   35.8833 O   0  0  0  0  0  0  0  0  0  0  0  0
    9.9459   45.0736   33.2113 C   0  0  1  0  0  0  0  0  0  0  0  0
   11.0267   46.0291   33.4707 N   0  0  0  0  0  0  0  0  0  0  0  0
    9.7535   44.8539   31.6951 C   0  0  0  0  0  0  0  0  0  0  0  0
    8.7955   45.8412   31.0851 C   0  0  0  0  0  0  0  0  0  0  0  0
    7.4089   45.6004   31.1006 C   0  0  0  0  0  0  0  0  0  0  0  0
    9.2828   46.9875   30.4398 C   0  0  0  0  0  0  0  0  0  0  0  0
    6.5286   46.5006   30.4848 C   0  0  0  0  0  0  0  0  0  0  0  0
    8.4026   47.8889   29.8295 C   0  0  0  0  0  0  0  0  0  0  0  0
    7.0128   47.6523   29.8488 C   0  0  0  0  0  0  0  0  0  0  0  0
    6.0805   48.5160   29.2494 O   0  0  0  0  0  0  0  0  0  0  0  0
    6.3699   49.7807   28.6433 C   0  0  2  0  0  0  0  0  0  0  0  0
    6.6487   50.8269   29.7282 C   0  0  0  0  0  0  0  0  0  0  0  0
    5.2012   50.2372   27.7815 C   0  0  0  0  0  0  0  0  0  0  0  0
    3.9079   49.7013   28.0184 C   0  0  0  0  0  0  0  0  0  0  0  0
    5.3530   51.2740   26.7979 C   0  0  0  0  0  0  0  0  0  0  0  0
    2.8377   50.1935   27.2831 C   0  0  0  0  0  0  0  0  0  0  0  0
    4.2230   51.7445   26.0930 C   0  0  0  0  0  0  0  0  0  0  0  0
    6.6267   51.8745   26.5194 N   0  0  0  0  0  0  0  0  0  0  0  0
    1.5086   49.8212   27.3476 O   0  0  0  0  0  0  0  0  0  0  0  0
    2.9881   51.1722   26.3625 C   0  0  0  0  0  0  0  0  0  0  0  0
    6.7079   53.2350   26.3323 O   0  0  0  0  0  0  0  0  0  0  0  0
    7.5969   51.1639   26.1872 O   0  0  0  0  0  0  0  0  0  0  0  0
    0.7798   50.6170   26.4030 C   0  0  0  0  0  0  0  0  0  0  0  0
    1.7628   51.4667   25.7962 O   0  0  0  0  0  0  0  0  0  0  0  0
    8.8124   40.1844   34.2133 O   0  0  0  0  0  0  0  0  0  0  0  0
   11.2405   40.7942   33.3692 O   0  0  0  0  0  0  0  0  0  0  0  0
   10.9150   40.6905   31.9972 C   0  0  0  0  0  0  0  0  0  0  0  0
   11.5252   39.3886   31.4375 C   0  0  0  0  0  0  0  0  0  0  0  0
   12.7499   39.0874   32.0799 O   0  0  0  0  0  0  0  0  0  0  0  0
   10.6092   38.1926   31.6470 C   0  0  0  0  0  0  0  0  0  0  0  0
   12.9332   37.6793   32.0294 C   0  0  0  0  0  0  0  0  0  0  0  0
    9.6121   38.0894   30.6542 O   0  0  0  0  0  0  0  0  0  0  0  0
   11.5743   37.0145   31.7024 C   0  0  0  0  0  0  0  0  0  0  0  0
   13.4844   37.2108   33.3241 N   0  0  0  0  0  0  0  0  0  0  0  0
   11.6297   36.3239   30.4740 O   0  0  0  0  0  0  0  0  0  0  0  0
   14.4802   36.3313   33.5727 C   0  0  0  0  0  0  0  0  0  0  0  0
   13.1138   37.6266   34.5692 C   0  0  0  0  0  0  0  0  0  0  0  0
   15.2075   35.6149   32.6739 N   0  0  0  0  0  0  0  0  0  0  0  0
   14.6761   36.2303   34.9181 C   0  0  0  0  0  0  0  0  0  0  0  0
   13.8220   37.0447   35.5785 N   0  0  0  0  0  0  0  0  0  0  0  0
   16.1643   34.7600   33.1547 C   0  0  0  0  0  0  0  0  0  0  0  0
   15.6529   35.3505   35.4130 C   0  0  0  0  0  0  0  0  0  0  0  0
   16.3798   34.6315   34.5042 N   0  0  0  0  0  0  0  0  0  0  0  0
   15.9003   35.1932   36.8090 N   0  0  0  0  0  0  0  0  0  0  0  0
    8.9996   45.4381   33.6725 H   0  0  0  0  0  0  0  0  0  0  0  0
   11.0505   46.2277   34.4980 H   0  0  0  0  0  0  0  0  0  0  0  0
   10.7764   46.9368   33.0157 H   0  0  0  0  0  0  0  0  0  0  0  0
    9.3635   43.8353   31.4717 H   0  0  0  0  0  0  0  0  0  0  0  0
   10.7406   44.9070   31.1836 H   0  0  0  0  0  0  0  0  0  0  0  0
    7.0132   44.7158   31.5843 H   0  0  0  0  0  0  0  0  0  0  0  0
   10.3472   47.1851   30.4056 H   0  0  0  0  0  0  0  0  0  0  0  0
    5.4643   46.3026   30.5036 H   0  0  0  0  0  0  0  0  0  0  0  0
    8.8197   48.7584   29.3430 H   0  0  0  0  0  0  0  0  0  0  0  0
    7.2586   49.6543   27.9975 H   0  0  0  0  0  0  0  0  0  0  0  0
    5.7530   50.9579   30.3726 H   0  0  0  0  0  0  0  0  0  0  0  0
    7.4973   50.5117   30.3687 H   0  0  0  0  0  0  0  0  0  0  0  0
    6.9091   51.8042   29.2703 H   0  0  0  0  0  0  0  0  0  0  0  0
    3.7278   48.9399   28.7657 H   0  0  0  0  0  0  0  0  0  0  0  0
    4.3094   52.5263   25.3492 H   0  0  0  0  0  0  0  0  0  0  0  0
    0.0147   51.2286   26.9256 H   0  0  0  0  0  0  0  0  0  0  0  0
    0.3087   49.9673   25.6359 H   0  0  0  0  0  0  0  0  0  0  0  0
   11.3800   41.5528   31.4730 H   0  0  0  0  0  0  0  0  0  0  0  0
    9.8242   40.7215   31.7641 H   0  0  0  0  0  0  0  0  0  0  0  0
   11.7266   39.5310   30.3513 H   0  0  0  0  0  0  0  0  0  0  0  0
   10.1110   38.2747   32.6387 H   0  0  0  0  0  0  0  0  0  0  0  0
   13.6652   37.4520   31.2226 H   0  0  0  0  0  0  0  0  0  0  0  0
   10.0511   38.1142   29.7645 H   0  0  0  0  0  0  0  0  0  0  0  0
   11.2762   36.3141   32.5189 H   0  0  0  0  0  0  0  0  0  0  0  0
   10.8593   35.6978   30.4640 H   0  0  0  0  0  0  0  0  0  0  0  0
   12.3295   38.3518   34.7449 H   0  0  0  0  0  0  0  0  0  0  0  0
   16.7564   34.1780   32.4620 H   0  0  0  0  0  0  0  0  0  0  0  0
   16.6349   34.5300   37.1416 H   0  0  0  0  0  0  0  0  0  0  0  0
   15.3534   35.7359   37.5138 H   0  0  0  0  0  0  0  0  0  0  0  0
  1  2  2  0
  1  3  1  0
  3  4  1  0
  4  5  1  0
  6  1  1  0
  7  6  1  0
  6  8  1  0
  8  9  1  0
  9 10  2  0
 11  9  1  0
 10 12  1  0
 13 11  2  0
 12 14  2  0
 14 13  1  0
 14 15  1  0
 15 16  1  0
 16 17  1  0
 16 18  1  0
 18 19  2  0
 20 18  1  0
 19 21  1  0
 22 20  2  0
 20 23  1  0
 21 24  1  0
 21 25  2  0
 25 22  1  0
 23 26  1  0
 23 27  2  0
 24 28  1  0
 25 29  1  0
 28 29  1  0
  4 30  2  0
  4 31  1  0
 32 31  1  0
 32 33  1  0
 33 34  1  0
 33 35  1  0
 34 36  1  0
 35 37  1  0
 35 38  1  0
 38 36  1  0
 36 39  1  0
 38 40  1  0
 41 39  1  0
 42 39  1  0
 43 41  2  0
 41 44  1  0
 45 42  2  0
 46 43  1  0
 44 47  2  0
 44 45  1  0
 48 46  2  0
 48 47  1  0
 47 49  1  0
  6 50  1  1
  7 51  1  0
  7 52  1  0
  8 53  1  0
  8 54  1  0
 10 55  1  0
 11 56  1  0
 12 57  1  0
 13 58  1  0
 16 59  1  6
 17 60  1  0
 17 61  1  0
 17 62  1  0
 19 63  1  0
 22 64  1  0
 28 65  1  0
 28 66  1  0
 32 67  1  0
 32 68  1  0
 33 69  1  0
 35 70  1  0
 36 71  1  0
 37 72  1  0
 38 73  1  0
 40 74  1  0
 42 75  1  0
 46 76  1  0
 49 77  1  0
 49 78  1  0
M  CHG  3   5  -1  23   1  26  -1
M  END
>  <EmbedRMS>  (132) 
0.081628443886

$$$$

     RDKit          3D

 78 83  0  0  0  0  0  0  0  0999 V2000
   10.2834   43.7662   33.8256 C   0  0  0  0  0  0  0  0  0  0  0  0
   11.4101   43.5930   34.3752 O   0  0  0  0  0  0  0  0  0  0  0  0
    9.3636   42.7255   33.7348 O   0  0  0  0  0  0  0  0  0  0  0  0
    9.8905   41.2266   34.2933 P   0  0  0  0  0  0  0  0  0  0  0  0
   10.3743   41.4557   35.8827 O   0  0  0  0  0  0  0  0  0  0  0  0
    9.9547   45.0695   33.2034 C   0  0  1  0  0  0  0  0  0  0  0  0
   11.0274   46.0322   33.4759 N   0  0  0  0  0  0  0  0  0  0  0  0
    9.7472   44.8483   31.6874 C   0  0  0  0  0  0  0  0  0  0  0  0
    8.7927   45.8406   31.0840 C   0  0  0  0  0  0  0  0  0  0  0  0
    7.4060   45.6012   31.0995 C   0  0  0  0  0  0  0  0  0  0  0  0
    9.2817   46.9879   30.4424 C   0  0  0  0  0  0  0  0  0  0  0  0
    6.5241   46.5015   30.4858 C   0  0  0  0  0  0  0  0  0  0  0  0
    8.4004   47.8883   29.8333 C   0  0  0  0  0  0  0  0  0  0  0  0
    7.0185   47.6563   29.8439 C   0  0  0  0  0  0  0  0  0  0  0  0
    6.1867   48.5984   29.2159 O   0  0  0  0  0  0  0  0  0  0  0  0
    4.7731   48.4798   29.0261 C   0  0  2  0  0  0  0  0  0  0  0  0
    4.4727   47.4648   27.9173 C   0  0  0  0  0  0  0  0  0  0  0  0
    4.2088   49.8355   28.6457 C   0  0  0  0  0  0  0  0  0  0  0  0
    4.8977   50.6081   27.6777 C   0  0  0  0  0  0  0  0  0  0  0  0
    3.0297   50.3737   29.2614 C   0  0  0  0  0  0  0  0  0  0  0  0
    4.4253   51.8804   27.3843 C   0  0  0  0  0  0  0  0  0  0  0  0
    2.6063   51.6827   28.9340 C   0  0  0  0  0  0  0  0  0  0  0  0
    2.2445   49.6052   30.1866 N   0  0  0  0  0  0  0  0  0  0  0  0
    4.9384   52.8027   26.4927 O   0  0  0  0  0  0  0  0  0  0  0  0
    3.3315   52.3970   27.9898 C   0  0  0  0  0  0  0  0  0  0  0  0
    1.8725   48.3185   29.8729 O   0  0  0  0  0  0  0  0  0  0  0  0
    1.7063   50.1661   31.1634 O   0  0  0  0  0  0  0  0  0  0  0  0
    4.1113   53.9733   26.5423 C   0  0  0  0  0  0  0  0  0  0  0  0
    3.0972   53.6715   27.5105 O   0  0  0  0  0  0  0  0  0  0  0  0
    8.8121   40.1851   34.2128 O   0  0  0  0  0  0  0  0  0  0  0  0
   11.2403   40.7946   33.3668 O   0  0  0  0  0  0  0  0  0  0  0  0
   10.9126   40.6859   31.9954 C   0  0  0  0  0  0  0  0  0  0  0  0
   11.5175   39.3787   31.4405 C   0  0  0  0  0  0  0  0  0  0  0  0
   12.7490   39.0864   32.0752 O   0  0  0  0  0  0  0  0  0  0  0  0
   10.6061   38.1868   31.6656 C   0  0  0  0  0  0  0  0  0  0  0  0
   12.9356   37.6796   32.0292 C   0  0  0  0  0  0  0  0  0  0  0  0
    9.6399   38.0903   30.6471 O   0  0  0  0  0  0  0  0  0  0  0  0
   11.5765   37.0145   31.7044 C   0  0  0  0  0  0  0  0  0  0  0  0
   13.4858   37.2125   33.3244 N   0  0  0  0  0  0  0  0  0  0  0  0
   11.6101   36.3397   30.4673 O   0  0  0  0  0  0  0  0  0  0  0  0
   14.4805   36.3319   33.5729 C   0  0  0  0  0  0  0  0  0  0  0  0
   13.1143   37.6276   34.5694 C   0  0  0  0  0  0  0  0  0  0  0  0
   15.2076   35.6153   32.6741 N   0  0  0  0  0  0  0  0  0  0  0  0
   14.6760   36.2304   34.9184 C   0  0  0  0  0  0  0  0  0  0  0  0
   13.8219   37.0449   35.5786 N   0  0  0  0  0  0  0  0  0  0  0  0
   16.1641   34.7600   33.1548 C   0  0  0  0  0  0  0  0  0  0  0  0
   15.6528   35.3505   35.4132 C   0  0  0  0  0  0  0  0  0  0  0  0
   16.3795   34.6314   34.5043 N   0  0  0  0  0  0  0  0  0  0  0  0
   15.9002   35.1931   36.8091 N   0  0  0  0  0  0  0  0  0  0  0  0
    9.0120   45.4317   33.6711 H   0  0  0  0  0  0  0  0  0  0  0  0
   10.7261   46.9688   33.1214 H   0  0  0  0  0  0  0  0  0  0  0  0
   11.8908   45.7658   32.9475 H   0  0  0  0  0  0  0  0  0  0  0  0
    9.3426   43.8329   31.4757 H   0  0  0  0  0  0  0  0  0  0  0  0
   10.7237   44.8822   31.1557 H   0  0  0  0  0  0  0  0  0  0  0  0
    7.0105   44.7168   31.5837 H   0  0  0  0  0  0  0  0  0  0  0  0
   10.3459   47.1866   30.4112 H   0  0  0  0  0  0  0  0  0  0  0  0
    5.4665   46.2858   30.5239 H   0  0  0  0  0  0  0  0  0  0  0  0
    8.7941   48.7707   29.3448 H   0  0  0  0  0  0  0  0  0  0  0  0
    4.3174   48.1392   29.9764 H   0  0  0  0  0  0  0  0  0  0  0  0
    4.9791   47.7587   26.9733 H   0  0  0  0  0  0  0  0  0  0  0  0
    3.3787   47.4061   27.7351 H   0  0  0  0  0  0  0  0  0  0  0  0
    4.8298   46.4550   28.2045 H   0  0  0  0  0  0  0  0  0  0  0  0
    5.7851   50.2348   27.1822 H   0  0  0  0  0  0  0  0  0  0  0  0
    1.7227   52.1182   29.3828 H   0  0  0  0  0  0  0  0  0  0  0  0
    4.7067   54.8506   26.8717 H   0  0  0  0  0  0  0  0  0  0  0  0
    3.6501   54.1600   25.5499 H   0  0  0  0  0  0  0  0  0  0  0  0
    9.8215   40.7200   31.7636 H   0  0  0  0  0  0  0  0  0  0  0  0
   11.3803   41.5437   31.4664 H   0  0  0  0  0  0  0  0  0  0  0  0
   11.6998   39.5041   30.3482 H   0  0  0  0  0  0  0  0  0  0  0  0
   10.1085   38.2767   32.6603 H   0  0  0  0  0  0  0  0  0  0  0  0
   13.6680   37.4520   31.2229 H   0  0  0  0  0  0  0  0  0  0  0  0
    9.0016   37.3868   30.9349 H   0  0  0  0  0  0  0  0  0  0  0  0
   11.2666   36.3062   32.5083 H   0  0  0  0  0  0  0  0  0  0  0  0
   12.1389   35.5126   30.6150 H   0  0  0  0  0  0  0  0  0  0  0  0
   12.3300   38.3529   34.7449 H   0  0  0  0  0  0  0  0  0  0  0  0
   16.7560   34.1779   32.4621 H   0  0  0  0  0  0  0  0  0  0  0  0
   16.6347   34.5298   37.1416 H   0  0  0  0  0  0  0  0  0  0  0  0
   15.3534   35.7359   37.5140 H   0  0  0  0  0  0  0  0  0  0  0  0
  1  2  2  0
  1  3  1  0
  3  4  1  0
  4  5  1  0
  6  1  1  0
  7  6  1  0
  6  8  1  0
  8  9  1  0
  9 10  2  0
 11  9  1  0
 10 12  1  0
 13 11  2  0
 12 14  2  0
 14 13  1  0
 14 15  1  0
 15 16  1  0
 16 17  1  0
 16 18  1  0
 18 19  2  0
 20 18  1  0
 19 21  1  0
 22 20  2  0
 20 23  1  0
 21 24  1  0
 21 25  2  0
 25 22  1  0
 23 26  1  0
 23 27  2  0
 24 28  1  0
 25 29  1  0
 28 29  1  0
  4 30  2  0
  4 31  1  0
 32 31  1  0
 32 33  1  0
 33 34  1  0
 33 35  1  0
 34 36  1  0
 35 37  1  0
 35 38  1  0
 38 36  1  0
 36 39  1  0
 38 40  1  0
 41 39  1  0
 42 39  1  0
 43 41  2  0
 41 44  1  0
 45 42  2  0
 46 43  1  0
 44 47  2  0
 44 45  1  0
 48 46  2  0
 48 47  1  0
 47 49  1  0
  6 50  1  1
  7 51  1  0
  7 52  1  0
  8 53  1  0
  8 54  1  0
 10 55  1  0
 11 56  1  0
 12 57  1  0
 13 58  1  0
 16 59  1  1
 17 60  1  0
 17 61  1  0
 17 62  1  0
 19 63  1  0
 22 64  1  0
 28 65  1  0
 28 66  1  0
 32 67  1  0
 32 68  1  0
 33 69  1  0
 35 70  1  0
 36 71  1  0
 37 72  1  0
 38 73  1  0
 40 74  1  0
 42 75  1  0
 46 76  1  0
 49 77  1  0
 49 78  1  0
M  CHG  3   5  -1  23   1  26  -1
M  END
>  <EmbedRMS>  (133) 
0.0823832597707

$$$$

     RDKit          3D

 78 83  0  0  0  0  0  0  0  0999 V2000
   10.2803   43.7665   33.8251 C   0  0  0  0  0  0  0  0  0  0  0  0
   11.4109   43.5919   34.3668 O   0  0  0  0  0  0  0  0  0  0  0  0
    9.3616   42.7252   33.7348 O   0  0  0  0  0  0  0  0  0  0  0  0
    9.8895   41.2269   34.2945 P   0  0  0  0  0  0  0  0  0  0  0  0
   10.3730   41.4568   35.8837 O   0  0  0  0  0  0  0  0  0  0  0  0
    9.9458   45.0735   33.2111 C   0  0  1  0  0  0  0  0  0  0  0  0
   11.0266   46.0291   33.4704 N   0  0  0  0  0  0  0  0  0  0  0  0
    9.7533   44.8536   31.6948 C   0  0  0  0  0  0  0  0  0  0  0  0
    8.7954   45.8408   31.0846 C   0  0  0  0  0  0  0  0  0  0  0  0
    7.4085   45.6009   31.1012 C   0  0  0  0  0  0  0  0  0  0  0  0
    9.2830   46.9871   30.4393 C   0  0  0  0  0  0  0  0  0  0  0  0
    6.5281   46.5020   30.4864 C   0  0  0  0  0  0  0  0  0  0  0  0
    8.4025   47.8886   29.8300 C   0  0  0  0  0  0  0  0  0  0  0  0
    7.0138   47.6513   29.8479 C   0  0  0  0  0  0  0  0  0  0  0  0
    6.0874   48.5205   29.2489 O   0  0  0  0  0  0  0  0  0  0  0  0
    6.4157   49.6987   28.5063 C   0  0  2  0  0  0  0  0  0  0  0  0
    5.1316   50.4765   28.2288 C   0  0  0  0  0  0  0  0  0  0  0  0
    7.0913   49.3447   27.1910 C   0  0  0  0  0  0  0  0  0  0  0  0
    6.6326   48.2106   26.4753 C   0  0  0  0  0  0  0  0  0  0  0  0
    8.1016   50.1779   26.6058 C   0  0  0  0  0  0  0  0  0  0  0  0
    7.1935   47.9359   25.2352 C   0  0  0  0  0  0  0  0  0  0  0  0
    8.6241   49.8572   25.3334 C   0  0  0  0  0  0  0  0  0  0  0  0
    8.5835   51.3571   27.2640 N   0  0  0  0  0  0  0  0  0  0  0  0
    6.9066   46.8939   24.3746 O   0  0  0  0  0  0  0  0  0  0  0  0
    8.1468   48.7245   24.6881 C   0  0  0  0  0  0  0  0  0  0  0  0
    8.7338   52.5189   26.5430 O   0  0  0  0  0  0  0  0  0  0  0  0
    9.1330   51.2674   28.3806 O   0  0  0  0  0  0  0  0  0  0  0  0
    7.7365   47.0376   23.2138 C   0  0  0  0  0  0  0  0  0  0  0  0
    8.5126   48.2192   23.4552 O   0  0  0  0  0  0  0  0  0  0  0  0
    8.8122   40.1843   34.2134 O   0  0  0  0  0  0  0  0  0  0  0  0
   11.2401   40.7950   33.3699 O   0  0  0  0  0  0  0  0  0  0  0  0
   10.9145   40.6915   31.9981 C   0  0  0  0  0  0  0  0  0  0  0  0
   11.5271   39.3912   31.4386 C   0  0  0  0  0  0  0  0  0  0  0  0
   12.7520   39.0911   32.0838 O   0  0  0  0  0  0  0  0  0  0  0  0
   10.6114   38.1932   31.6451 C   0  0  0  0  0  0  0  0  0  0  0  0
   12.9413   37.6838   32.0298 C   0  0  0  0  0  0  0  0  0  0  0  0
    9.6065   38.0877   30.6599 O   0  0  0  0  0  0  0  0  0  0  0  0
   11.5823   37.0198   31.6877 C   0  0  0  0  0  0  0  0  0  0  0  0
   13.4840   37.2105   33.3255 N   0  0  0  0  0  0  0  0  0  0  0  0
   11.6181   36.3073   30.4690 O   0  0  0  0  0  0  0  0  0  0  0  0
   14.4797   36.3310   33.5738 C   0  0  0  0  0  0  0  0  0  0  0  0
   13.1135   37.6268   34.5703 C   0  0  0  0  0  0  0  0  0  0  0  0
   15.2074   35.6153   32.6747 N   0  0  0  0  0  0  0  0  0  0  0  0
   14.6756   36.2298   34.9190 C   0  0  0  0  0  0  0  0  0  0  0  0
   13.8216   37.0445   35.5794 N   0  0  0  0  0  0  0  0  0  0  0  0
   16.1643   34.7603   33.1551 C   0  0  0  0  0  0  0  0  0  0  0  0
   15.6528   35.3503   35.4136 C   0  0  0  0  0  0  0  0  0  0  0  0
   16.3798   34.6315   34.5045 N   0  0  0  0  0  0  0  0  0  0  0  0
   15.9004   35.1929   36.8094 N   0  0  0  0  0  0  0  0  0  0  0  0
    8.9996   45.4382   33.6722 H   0  0  0  0  0  0  0  0  0  0  0  0
   10.7765   46.9368   33.0153 H   0  0  0  0  0  0  0  0  0  0  0  0
   11.0503   46.2279   34.4978 H   0  0  0  0  0  0  0  0  0  0  0  0
   10.7403   44.9064   31.1832 H   0  0  0  0  0  0  0  0  0  0  0  0
    9.3629   43.8351   31.4715 H   0  0  0  0  0  0  0  0  0  0  0  0
    7.0127   44.7167   31.5856 H   0  0  0  0  0  0  0  0  0  0  0  0
   10.3473   47.1852   30.4052 H   0  0  0  0  0  0  0  0  0  0  0  0
    5.4637   46.3055   30.5059 H   0  0  0  0  0  0  0  0  0  0  0  0
    8.8144   48.7612   29.3460 H   0  0  0  0  0  0  0  0  0  0  0  0
    7.0533   50.3430   29.1418 H   0  0  0  0  0  0  0  0  0  0  0  0
    5.3606   51.4093   27.6697 H   0  0  0  0  0  0  0  0  0  0  0  0
    4.6443   50.7518   29.1884 H   0  0  0  0  0  0  0  0  0  0  0  0
    4.4226   49.8606   27.6344 H   0  0  0  0  0  0  0  0  0  0  0  0
    5.8524   47.5699   26.8660 H   0  0  0  0  0  0  0  0  0  0  0  0
    9.3852   50.4700   24.8678 H   0  0  0  0  0  0  0  0  0  0  0  0
    8.4033   46.1564   23.1069 H   0  0  0  0  0  0  0  0  0  0  0  0
    7.1095   47.1696   22.3073 H   0  0  0  0  0  0  0  0  0  0  0  0
   11.3780   41.5549   31.4741 H   0  0  0  0  0  0  0  0  0  0  0  0
    9.8236   40.7204   31.7651 H   0  0  0  0  0  0  0  0  0  0  0  0
   11.7313   39.5360   30.3532 H   0  0  0  0  0  0  0  0  0  0  0  0
   10.1204   38.2697   32.6411 H   0  0  0  0  0  0  0  0  0  0  0  0
   13.6851   37.4640   31.2322 H   0  0  0  0  0  0  0  0  0  0  0  0
   10.0251   38.1791   29.7654 H   0  0  0  0  0  0  0  0  0  0  0  0
   11.2759   36.3134   32.4906 H   0  0  0  0  0  0  0  0  0  0  0  0
   11.9841   36.9112   29.7708 H   0  0  0  0  0  0  0  0  0  0  0  0
   12.3306   38.3536   34.7458 H   0  0  0  0  0  0  0  0  0  0  0  0
   16.7566   34.1787   32.4622 H   0  0  0  0  0  0  0  0  0  0  0  0
   16.6354   34.5300   37.1416 H   0  0  0  0  0  0  0  0  0  0  0  0
   15.3536   35.7354   37.5144 H   0  0  0  0  0  0  0  0  0  0  0  0
  1  2  2  0
  1  3  1  0
  3  4  1  0
  4  5  1  0
  6  1  1  0
  7  6  1  0
  6  8  1  0
  8  9  1  0
  9 10  2  0
 11  9  1  0
 10 12  1  0
 13 11  2  0
 12 14  2  0
 14 13  1  0
 14 15  1  0
 15 16  1  0
 16 17  1  0
 16 18  1  0
 18 19  2  0
 20 18  1  0
 19 21  1  0
 22 20  2  0
 20 23  1  0
 21 24  1  0
 21 25  2  0
 25 22  1  0
 23 26  1  0
 23 27  2  0
 24 28  1  0
 25 29  1  0
 28 29  1  0
  4 30  2  0
  4 31  1  0
 32 31  1  0
 32 33  1  0
 33 34  1  0
 33 35  1  0
 34 36  1  0
 35 37  1  0
 35 38  1  0
 38 36  1  0
 36 39  1  0
 38 40  1  0
 41 39  1  0
 42 39  1  0
 43 41  2  0
 41 44  1  0
 45 42  2  0
 46 43  1  0
 44 47  2  0
 44 45  1  0
 48 46  2  0
 48 47  1  0
 47 49  1  0
  6 50  1  1
  7 51  1  0
  7 52  1  0
  8 53  1  0
  8 54  1  0
 10 55  1  0
 11 56  1  0
 12 57  1  0
 13 58  1  0
 16 59  1  1
 17 60  1  0
 17 61  1  0
 17 62  1  0
 19 63  1  0
 22 64  1  0
 28 65  1  0
 28 66  1  0
 32 67  1  0
 32 68  1  0
 33 69  1  0
 35 70  1  0
 36 71  1  0
 37 72  1  0
 38 73  1  0
 40 74  1  0
 42 75  1  0
 46 76  1  0
 49 77  1  0
 49 78  1  0
M  CHG  3   5  -1  23   1  26  -1
M  END
>  <EmbedRMS>  (134) 
0.0806633242746

$$$$

     RDKit          3D

 78 83  0  0  0  0  0  0  0  0999 V2000
   10.2804   43.7664   33.8250 C   0  0  0  0  0  0  0  0  0  0  0  0
   11.4111   43.5918   34.3667 O   0  0  0  0  0  0  0  0  0  0  0  0
    9.3618   42.7250   33.7345 O   0  0  0  0  0  0  0  0  0  0  0  0
    9.8898   41.2267   34.2939 P   0  0  0  0  0  0  0  0  0  0  0  0
   10.3735   41.4566   35.8832 O   0  0  0  0  0  0  0  0  0  0  0  0
    9.9460   45.0736   33.2112 C   0  0  1  0  0  0  0  0  0  0  0  0
   11.0267   46.0292   33.4709 N   0  0  0  0  0  0  0  0  0  0  0  0
    9.7542   44.8541   31.6949 C   0  0  0  0  0  0  0  0  0  0  0  0
    8.7960   45.8413   31.0850 C   0  0  0  0  0  0  0  0  0  0  0  0
    7.4097   45.6004   31.1010 C   0  0  0  0  0  0  0  0  0  0  0  0
    9.2823   46.9875   30.4400 C   0  0  0  0  0  0  0  0  0  0  0  0
    6.5264   46.4991   30.4866 C   0  0  0  0  0  0  0  0  0  0  0  0
    8.3992   47.8862   29.8313 C   0  0  0  0  0  0  0  0  0  0  0  0
    7.0169   47.6558   29.8454 C   0  0  0  0  0  0  0  0  0  0  0  0
    6.1916   48.5967   29.2021 O   0  0  0  0  0  0  0  0  0  0  0  0
    4.7604   48.5901   29.1115 C   0  0  2  0  0  0  0  0  0  0  0  0
    4.1445   48.9242   30.4796 C   0  0  0  0  0  0  0  0  0  0  0  0
    4.2442   47.3270   28.4200 C   0  0  0  0  0  0  0  0  0  0  0  0
    3.1902   46.5617   28.9907 C   0  0  0  0  0  0  0  0  0  0  0  0
    4.8364   46.8762   27.1899 C   0  0  0  0  0  0  0  0  0  0  0  0
    2.8020   45.3868   28.3615 C   0  0  0  0  0  0  0  0  0  0  0  0
    4.4062   45.6627   26.6055 C   0  0  0  0  0  0  0  0  0  0  0  0
    5.8725   47.6249   26.5314 N   0  0  0  0  0  0  0  0  0  0  0  0
    1.8220   44.4917   28.7458 O   0  0  0  0  0  0  0  0  0  0  0  0
    3.3869   44.9539   27.2230 C   0  0  0  0  0  0  0  0  0  0  0  0
    5.7520   48.9847   26.3643 O   0  0  0  0  0  0  0  0  0  0  0  0
    6.7961   47.0266   25.9419 O   0  0  0  0  0  0  0  0  0  0  0  0
    1.7919   43.4285   27.7839 C   0  0  0  0  0  0  0  0  0  0  0  0
    2.8071   43.7636   26.8283 O   0  0  0  0  0  0  0  0  0  0  0  0
    8.8122   40.1844   34.2133 O   0  0  0  0  0  0  0  0  0  0  0  0
   11.2402   40.7944   33.3688 O   0  0  0  0  0  0  0  0  0  0  0  0
   10.9142   40.6898   31.9970 C   0  0  0  0  0  0  0  0  0  0  0  0
   11.5260   39.3884   31.4376 C   0  0  0  0  0  0  0  0  0  0  0  0
   12.7504   39.0888   32.0816 O   0  0  0  0  0  0  0  0  0  0  0  0
   10.6114   38.1910   31.6460 C   0  0  0  0  0  0  0  0  0  0  0  0
   12.9357   37.6812   32.0303 C   0  0  0  0  0  0  0  0  0  0  0  0
    9.6145   38.0858   30.6533 O   0  0  0  0  0  0  0  0  0  0  0  0
   11.5769   37.0148   31.7012 C   0  0  0  0  0  0  0  0  0  0  0  0
   13.4849   37.2112   33.3247 N   0  0  0  0  0  0  0  0  0  0  0  0
   11.6193   36.3261   30.4724 O   0  0  0  0  0  0  0  0  0  0  0  0
   14.4802   36.3313   33.5730 C   0  0  0  0  0  0  0  0  0  0  0  0
   13.1141   37.6268   34.5698 C   0  0  0  0  0  0  0  0  0  0  0  0
   15.2075   35.6151   32.6741 N   0  0  0  0  0  0  0  0  0  0  0  0
   14.6761   36.2300   34.9184 C   0  0  0  0  0  0  0  0  0  0  0  0
   13.8220   37.0445   35.5789 N   0  0  0  0  0  0  0  0  0  0  0  0
   16.1642   34.7600   33.1547 C   0  0  0  0  0  0  0  0  0  0  0  0
   15.6529   35.3503   35.4132 C   0  0  0  0  0  0  0  0  0  0  0  0
   16.3797   34.6314   34.5042 N   0  0  0  0  0  0  0  0  0  0  0  0
   15.9004   35.1930   36.8091 N   0  0  0  0  0  0  0  0  0  0  0  0
    8.9996   45.4381   33.6721 H   0  0  0  0  0  0  0  0  0  0  0  0
   11.0502   46.2277   34.4983 H   0  0  0  0  0  0  0  0  0  0  0  0
   10.7765   46.9368   33.0159 H   0  0  0  0  0  0  0  0  0  0  0  0
    9.3647   43.8354   31.4710 H   0  0  0  0  0  0  0  0  0  0  0  0
   10.7413   44.9078   31.1836 H   0  0  0  0  0  0  0  0  0  0  0  0
    7.0158   44.7149   31.5845 H   0  0  0  0  0  0  0  0  0  0  0  0
   10.3461   47.1873   30.4049 H   0  0  0  0  0  0  0  0  0  0  0  0
    5.4741   46.2721   30.5192 H   0  0  0  0  0  0  0  0  0  0  0  0
    8.7925   48.7663   29.3384 H   0  0  0  0  0  0  0  0  0  0  0  0
    4.4766   49.4402   28.4564 H   0  0  0  0  0  0  0  0  0  0  0  0
    4.6176   49.8446   30.8829 H   0  0  0  0  0  0  0  0  0  0  0  0
    3.0567   49.1226   30.3742 H   0  0  0  0  0  0  0  0  0  0  0  0
    4.2992   48.1086   31.2136 H   0  0  0  0  0  0  0  0  0  0  0  0
    2.6910   46.8457   29.9054 H   0  0  0  0  0  0  0  0  0  0  0  0
    4.8411   45.2947   25.6851 H   0  0  0  0  0  0  0  0  0  0  0  0
    2.0306   42.4610   28.2733 H   0  0  0  0  0  0  0  0  0  0  0  0
    0.7989   43.3860   27.2893 H   0  0  0  0  0  0  0  0  0  0  0  0
    9.8232   40.7191   31.7644 H   0  0  0  0  0  0  0  0  0  0  0  0
   11.3778   41.5526   31.4723 H   0  0  0  0  0  0  0  0  0  0  0  0
   11.7284   39.5311   30.3515 H   0  0  0  0  0  0  0  0  0  0  0  0
   10.1126   38.2734   32.6376 H   0  0  0  0  0  0  0  0  0  0  0  0
   13.6692   37.4566   31.2242 H   0  0  0  0  0  0  0  0  0  0  0  0
   10.0533   38.1118   29.7635 H   0  0  0  0  0  0  0  0  0  0  0  0
   11.2606   36.3148   32.5102 H   0  0  0  0  0  0  0  0  0  0  0  0
   12.1496   35.5023   30.6324 H   0  0  0  0  0  0  0  0  0  0  0  0
   12.3301   38.3524   34.7455 H   0  0  0  0  0  0  0  0  0  0  0  0
   16.7563   34.1781   32.4619 H   0  0  0  0  0  0  0  0  0  0  0  0
   15.3536   35.7357   37.5140 H   0  0  0  0  0  0  0  0  0  0  0  0
   16.6351   34.5298   37.1416 H   0  0  0  0  0  0  0  0  0  0  0  0
  1  2  2  0
  1  3  1  0
  3  4  1  0
  4  5  1  0
  6  1  1  0
  7  6  1  0
  6  8  1  0
  8  9  1  0
  9 10  2  0
 11  9  1  0
 10 12  1  0
 13 11  2  0
 12 14  2  0
 14 13  1  0
 14 15  1  0
 15 16  1  0
 16 17  1  0
 16 18  1  0
 18 19  2  0
 20 18  1  0
 19 21  1  0
 22 20  2  0
 20 23  1  0
 21 24  1  0
 21 25  2  0
 25 22  1  0
 23 26  1  0
 23 27  2  0
 24 28  1  0
 25 29  1  0
 28 29  1  0
  4 30  2  0
  4 31  1  0
 32 31  1  0
 32 33  1  0
 33 34  1  0
 33 35  1  0
 34 36  1  0
 35 37  1  0
 35 38  1  0
 38 36  1  0
 36 39  1  0
 38 40  1  0
 41 39  1  0
 42 39  1  0
 43 41  2  0
 41 44  1  0
 45 42  2  0
 46 43  1  0
 44 47  2  0
 44 45  1  0
 48 46  2  0
 48 47  1  0
 47 49  1  0
  6 50  1  1
  7 51  1  0
  7 52  1  0
  8 53  1  0
  8 54  1  0
 10 55  1  0
 11 56  1  0
 12 57  1  0
 13 58  1  0
 16 59  1  6
 17 60  1  0
 17 61  1  0
 17 62  1  0
 19 63  1  0
 22 64  1  0
 28 65  1  0
 28 66  1  0
 32 67  1  0
 32 68  1  0
 33 69  1  0
 35 70  1  0
 36 71  1  0
 37 72  1  0
 38 73  1  0
 40 74  1  0
 42 75  1  0
 46 76  1  0
 49 77  1  0
 49 78  1  0
M  CHG  3   5  -1  23   1  26  -1
M  END
>  <EmbedRMS>  (135) 
0.0814261494642

$$$$

     RDKit          3D

 78 83  0  0  0  0  0  0  0  0999 V2000
   10.2839   43.7626   33.8277 C   0  0  0  0  0  0  0  0  0  0  0  0
   11.4104   43.5863   34.3767 O   0  0  0  0  0  0  0  0  0  0  0  0
    9.3631   42.7235   33.7355 O   0  0  0  0  0  0  0  0  0  0  0  0
    9.8895   41.2249   34.2944 P   0  0  0  0  0  0  0  0  0  0  0  0
   10.3727   41.4546   35.8839 O   0  0  0  0  0  0  0  0  0  0  0  0
    9.9548   45.0699   33.2066 C   0  0  1  0  0  0  0  0  0  0  0  0
   11.0198   46.0480   33.4569 N   0  0  0  0  0  0  0  0  0  0  0  0
    9.7499   44.8508   31.6926 C   0  0  0  0  0  0  0  0  0  0  0  0
    8.7941   45.8419   31.0874 C   0  0  0  0  0  0  0  0  0  0  0  0
    7.4076   45.6009   31.0998 C   0  0  0  0  0  0  0  0  0  0  0  0
    9.2830   46.9887   30.4448 C   0  0  0  0  0  0  0  0  0  0  0  0
    6.5285   46.5014   30.4832 C   0  0  0  0  0  0  0  0  0  0  0  0
    8.4040   47.8896   29.8316 C   0  0  0  0  0  0  0  0  0  0  0  0
    7.0138   47.6534   29.8484 C   0  0  0  0  0  0  0  0  0  0  0  0
    6.0825   48.5165   29.2471 O   0  0  0  0  0  0  0  0  0  0  0  0
    6.3693   49.7901   28.6632 C   0  0  2  0  0  0  0  0  0  0  0  0
    6.6453   50.8304   29.7573 C   0  0  0  0  0  0  0  0  0  0  0  0
    5.1831   50.2156   27.8164 C   0  0  0  0  0  0  0  0  0  0  0  0
    3.9148   50.3348   28.4379 C   0  0  0  0  0  0  0  0  0  0  0  0
    5.3111   50.5386   26.4247 C   0  0  0  0  0  0  0  0  0  0  0  0
    2.8462   50.8024   27.6841 C   0  0  0  0  0  0  0  0  0  0  0  0
    4.1918   51.0260   25.7124 C   0  0  0  0  0  0  0  0  0  0  0  0
    6.5458   50.3507   25.7193 N   0  0  0  0  0  0  0  0  0  0  0  0
    1.5387   51.0062   28.0815 O   0  0  0  0  0  0  0  0  0  0  0  0
    2.9803   51.1393   26.3809 C   0  0  0  0  0  0  0  0  0  0  0  0
    7.1397   49.1097   25.7034 O   0  0  0  0  0  0  0  0  0  0  0  0
    6.9365   51.2168   24.9098 O   0  0  0  0  0  0  0  0  0  0  0  0
    0.8060   51.5033   26.9532 C   0  0  0  0  0  0  0  0  0  0  0  0
    1.7643   51.5727   25.8885 O   0  0  0  0  0  0  0  0  0  0  0  0
    8.8114   40.1833   34.2130 O   0  0  0  0  0  0  0  0  0  0  0  0
   11.2402   40.7930   33.3696 O   0  0  0  0  0  0  0  0  0  0  0  0
   10.9151   40.6903   31.9975 C   0  0  0  0  0  0  0  0  0  0  0  0
   11.5252   39.3885   31.4375 C   0  0  0  0  0  0  0  0  0  0  0  0
   12.7500   39.0873   32.0798 O   0  0  0  0  0  0  0  0  0  0  0  0
   10.6092   38.1925   31.6469 C   0  0  0  0  0  0  0  0  0  0  0  0
   12.9332   37.6792   32.0294 C   0  0  0  0  0  0  0  0  0  0  0  0
    9.6121   38.0894   30.6542 O   0  0  0  0  0  0  0  0  0  0  0  0
   11.5743   37.0144   31.7024 C   0  0  0  0  0  0  0  0  0  0  0  0
   13.4844   37.2107   33.3241 N   0  0  0  0  0  0  0  0  0  0  0  0
   11.6297   36.3238   30.4740 O   0  0  0  0  0  0  0  0  0  0  0  0
   14.4802   36.3313   33.5726 C   0  0  0  0  0  0  0  0  0  0  0  0
   13.1139   37.6266   34.5692 C   0  0  0  0  0  0  0  0  0  0  0  0
   15.2075   35.6149   32.6739 N   0  0  0  0  0  0  0  0  0  0  0  0
   14.6761   36.2303   34.9181 C   0  0  0  0  0  0  0  0  0  0  0  0
   13.8220   37.0447   35.5784 N   0  0  0  0  0  0  0  0  0  0  0  0
   16.1643   34.7600   33.1547 C   0  0  0  0  0  0  0  0  0  0  0  0
   15.6529   35.3505   35.4130 C   0  0  0  0  0  0  0  0  0  0  0  0
   16.3798   34.6315   34.5042 N   0  0  0  0  0  0  0  0  0  0  0  0
   15.9003   35.1932   36.8090 N   0  0  0  0  0  0  0  0  0  0  0  0
    9.0099   45.4348   33.6674 H   0  0  0  0  0  0  0  0  0  0  0  0
   11.1136   46.1992   34.4881 H   0  0  0  0  0  0  0  0  0  0  0  0
   11.9348   45.6932   33.0923 H   0  0  0  0  0  0  0  0  0  0  0  0
    9.3505   43.8343   31.4766 H   0  0  0  0  0  0  0  0  0  0  0  0
   10.7302   44.8920   31.1676 H   0  0  0  0  0  0  0  0  0  0  0  0
    7.0109   44.7155   31.5812 H   0  0  0  0  0  0  0  0  0  0  0  0
   10.3476   47.1863   30.4148 H   0  0  0  0  0  0  0  0  0  0  0  0
    5.4643   46.3032   30.4999 H   0  0  0  0  0  0  0  0  0  0  0  0
    8.8230   48.7575   29.3444 H   0  0  0  0  0  0  0  0  0  0  0  0
    7.2786   49.7166   28.0394 H   0  0  0  0  0  0  0  0  0  0  0  0
    7.5689   50.5728   30.3147 H   0  0  0  0  0  0  0  0  0  0  0  0
    6.7857   51.8343   29.3025 H   0  0  0  0  0  0  0  0  0  0  0  0
    5.8070   50.8754   30.4838 H   0  0  0  0  0  0  0  0  0  0  0  0
    3.7683   50.0824   29.4803 H   0  0  0  0  0  0  0  0  0  0  0  0
    4.2603   51.2815   24.6627 H   0  0  0  0  0  0  0  0  0  0  0  0
   -0.0121   50.8015   26.6873 H   0  0  0  0  0  0  0  0  0  0  0  0
    0.4027   52.5142   27.1723 H   0  0  0  0  0  0  0  0  0  0  0  0
   11.3805   41.5528   31.4739 H   0  0  0  0  0  0  0  0  0  0  0  0
    9.8243   40.7216   31.7641 H   0  0  0  0  0  0  0  0  0  0  0  0
   11.7265   39.5311   30.3512 H   0  0  0  0  0  0  0  0  0  0  0  0
   10.1110   38.2746   32.6387 H   0  0  0  0  0  0  0  0  0  0  0  0
   13.6652   37.4518   31.2226 H   0  0  0  0  0  0  0  0  0  0  0  0
   10.0511   38.1143   29.7645 H   0  0  0  0  0  0  0  0  0  0  0  0
   11.2762   36.3141   32.5189 H   0  0  0  0  0  0  0  0  0  0  0  0
   10.8593   35.6977   30.4640 H   0  0  0  0  0  0  0  0  0  0  0  0
   12.3294   38.3518   34.7449 H   0  0  0  0  0  0  0  0  0  0  0  0
   16.7564   34.1779   32.4620 H   0  0  0  0  0  0  0  0  0  0  0  0
   16.6349   34.5300   37.1415 H   0  0  0  0  0  0  0  0  0  0  0  0
   15.3534   35.7359   37.5138 H   0  0  0  0  0  0  0  0  0  0  0  0
  1  2  2  0
  1  3  1  0
  3  4  1  0
  4  5  1  0
  6  1  1  0
  7  6  1  0
  6  8  1  0
  8  9  1  0
  9 10  2  0
 11  9  1  0
 10 12  1  0
 13 11  2  0
 12 14  2  0
 14 13  1  0
 14 15  1  0
 15 16  1  0
 16 17  1  0
 16 18  1  0
 18 19  2  0
 20 18  1  0
 19 21  1  0
 22 20  2  0
 20 23  1  0
 21 24  1  0
 21 25  2  0
 25 22  1  0
 23 26  1  0
 23 27  2  0
 24 28  1  0
 25 29  1  0
 28 29  1  0
  4 30  2  0
  4 31  1  0
 32 31  1  0
 32 33  1  0
 33 34  1  0
 33 35  1  0
 34 36  1  0
 35 37  1  0
 35 38  1  0
 38 36  1  0
 36 39  1  0
 38 40  1  0
 41 39  1  0
 42 39  1  0
 43 41  2  0
 41 44  1  0
 45 42  2  0
 46 43  1  0
 44 47  2  0
 44 45  1  0
 48 46  2  0
 48 47  1  0
 47 49  1  0
  6 50  1  1
  7 51  1  0
  7 52  1  0
  8 53  1  0
  8 54  1  0
 10 55  1  0
 11 56  1  0
 12 57  1  0
 13 58  1  0
 16 59  1  6
 17 60  1  0
 17 61  1  0
 17 62  1  0
 19 63  1  0
 22 64  1  0
 28 65  1  0
 28 66  1  0
 32 67  1  0
 32 68  1  0
 33 69  1  0
 35 70  1  0
 36 71  1  0
 37 72  1  0
 38 73  1  0
 40 74  1  0
 42 75  1  0
 46 76  1  0
 49 77  1  0
 49 78  1  0
M  CHG  3   5  -1  23   1  26  -1
M  END
>  <EmbedRMS>  (136) 
0.0827014480277

$$$$

     RDKit          3D

 78 83  0  0  0  0  0  0  0  0999 V2000
   10.2804   43.7664   33.8249 C   0  0  0  0  0  0  0  0  0  0  0  0
   11.4110   43.5919   34.3666 O   0  0  0  0  0  0  0  0  0  0  0  0
    9.3618   42.7249   33.7345 O   0  0  0  0  0  0  0  0  0  0  0  0
    9.8899   41.2266   34.2940 P   0  0  0  0  0  0  0  0  0  0  0  0
   10.3735   41.4566   35.8832 O   0  0  0  0  0  0  0  0  0  0  0  0
    9.9459   45.0735   33.2111 C   0  0  1  0  0  0  0  0  0  0  0  0
   11.0267   46.0291   33.4705 N   0  0  0  0  0  0  0  0  0  0  0  0
    9.7536   44.8537   31.6948 C   0  0  0  0  0  0  0  0  0  0  0  0
    8.7956   45.8407   31.0844 C   0  0  0  0  0  0  0  0  0  0  0  0
    7.4088   45.6008   31.1013 C   0  0  0  0  0  0  0  0  0  0  0  0
    9.2827   46.9879   30.4402 C   0  0  0  0  0  0  0  0  0  0  0  0
    6.5284   46.5017   30.4866 C   0  0  0  0  0  0  0  0  0  0  0  0
    8.4021   47.8897   29.8315 C   0  0  0  0  0  0  0  0  0  0  0  0
    7.0137   47.6501   29.8456 C   0  0  0  0  0  0  0  0  0  0  0  0
    6.0849   48.5153   29.2443 O   0  0  0  0  0  0  0  0  0  0  0  0
    6.4045   49.6468   28.4338 C   0  0  2  0  0  0  0  0  0  0  0  0
    5.1464   50.4870   28.2109 C   0  0  0  0  0  0  0  0  0  0  0  0
    7.0247   49.2263   27.1079 C   0  0  0  0  0  0  0  0  0  0  0  0
    8.2899   49.7674   26.7698 C   0  0  0  0  0  0  0  0  0  0  0  0
    6.3630   48.3631   26.1672 C   0  0  0  0  0  0  0  0  0  0  0  0
    8.8486   49.4415   25.5413 C   0  0  0  0  0  0  0  0  0  0  0  0
    6.9745   48.0813   24.9255 C   0  0  0  0  0  0  0  0  0  0  0  0
    5.0742   47.7922   26.4297 N   0  0  0  0  0  0  0  0  0  0  0  0
   10.0587   49.8485   25.0132 O   0  0  0  0  0  0  0  0  0  0  0  0
    8.2182   48.6354   24.6576 C   0  0  0  0  0  0  0  0  0  0  0  0
    4.1121   47.8181   25.4468 O   0  0  0  0  0  0  0  0  0  0  0  0
    4.9102   47.0386   27.4097 O   0  0  0  0  0  0  0  0  0  0  0  0
   10.1957   49.2567   23.7141 C   0  0  0  0  0  0  0  0  0  0  0  0
    8.9980   48.4905   23.5263 O   0  0  0  0  0  0  0  0  0  0  0  0
    8.8123   40.1844   34.2134 O   0  0  0  0  0  0  0  0  0  0  0  0
   11.2402   40.7944   33.3688 O   0  0  0  0  0  0  0  0  0  0  0  0
   10.9142   40.6898   31.9970 C   0  0  0  0  0  0  0  0  0  0  0  0
   11.5260   39.3884   31.4376 C   0  0  0  0  0  0  0  0  0  0  0  0
   12.7504   39.0888   32.0816 O   0  0  0  0  0  0  0  0  0  0  0  0
   10.6115   38.1909   31.6460 C   0  0  0  0  0  0  0  0  0  0  0  0
   12.9357   37.6812   32.0303 C   0  0  0  0  0  0  0  0  0  0  0  0
    9.6145   38.0858   30.6533 O   0  0  0  0  0  0  0  0  0  0  0  0
   11.5769   37.0148   31.7012 C   0  0  0  0  0  0  0  0  0  0  0  0
   13.4849   37.2112   33.3247 N   0  0  0  0  0  0  0  0  0  0  0  0
   11.6193   36.3261   30.4724 O   0  0  0  0  0  0  0  0  0  0  0  0
   14.4802   36.3313   33.5730 C   0  0  0  0  0  0  0  0  0  0  0  0
   13.1141   37.6268   34.5698 C   0  0  0  0  0  0  0  0  0  0  0  0
   15.2075   35.6151   32.6741 N   0  0  0  0  0  0  0  0  0  0  0  0
   14.6761   36.2300   34.9184 C   0  0  0  0  0  0  0  0  0  0  0  0
   13.8220   37.0445   35.5789 N   0  0  0  0  0  0  0  0  0  0  0  0
   16.1642   34.7600   33.1547 C   0  0  0  0  0  0  0  0  0  0  0  0
   15.6529   35.3503   35.4132 C   0  0  0  0  0  0  0  0  0  0  0  0
   16.3797   34.6314   34.5042 N   0  0  0  0  0  0  0  0  0  0  0  0
   15.9004   35.1930   36.8091 N   0  0  0  0  0  0  0  0  0  0  0  0
    8.9995   45.4382   33.6721 H   0  0  0  0  0  0  0  0  0  0  0  0
   11.0504   46.2277   34.4979 H   0  0  0  0  0  0  0  0  0  0  0  0
   10.7764   46.9368   33.0156 H   0  0  0  0  0  0  0  0  0  0  0  0
    9.3638   43.8351   31.4713 H   0  0  0  0  0  0  0  0  0  0  0  0
   10.7407   44.9070   31.1833 H   0  0  0  0  0  0  0  0  0  0  0  0
    7.0130   44.7167   31.5858 H   0  0  0  0  0  0  0  0  0  0  0  0
   10.3468   47.1879   30.4093 H   0  0  0  0  0  0  0  0  0  0  0  0
    5.4641   46.3042   30.5055 H   0  0  0  0  0  0  0  0  0  0  0  0
    8.8148   48.7680   29.3595 H   0  0  0  0  0  0  0  0  0  0  0  0
    7.1058   50.2970   29.0028 H   0  0  0  0  0  0  0  0  0  0  0  0
    4.3359   49.8891   27.7476 H   0  0  0  0  0  0  0  0  0  0  0  0
    4.7774   50.8700   29.1860 H   0  0  0  0  0  0  0  0  0  0  0  0
    5.3761   51.3559   27.5575 H   0  0  0  0  0  0  0  0  0  0  0  0
    8.8209   50.4330   27.4384 H   0  0  0  0  0  0  0  0  0  0  0  0
    6.4964   47.4391   24.1969 H   0  0  0  0  0  0  0  0  0  0  0  0
   11.0842   48.5916   23.6867 H   0  0  0  0  0  0  0  0  0  0  0  0
   10.2706   50.0470   22.9380 H   0  0  0  0  0  0  0  0  0  0  0  0
   11.3777   41.5525   31.4723 H   0  0  0  0  0  0  0  0  0  0  0  0
    9.8232   40.7190   31.7645 H   0  0  0  0  0  0  0  0  0  0  0  0
   11.7284   39.5311   30.3515 H   0  0  0  0  0  0  0  0  0  0  0  0
   10.1127   38.2734   32.6376 H   0  0  0  0  0  0  0  0  0  0  0  0
   13.6692   37.4566   31.2242 H   0  0  0  0  0  0  0  0  0  0  0  0
   10.0533   38.1118   29.7635 H   0  0  0  0  0  0  0  0  0  0  0  0
   11.2607   36.3148   32.5102 H   0  0  0  0  0  0  0  0  0  0  0  0
   12.1496   35.5023   30.6324 H   0  0  0  0  0  0  0  0  0  0  0  0
   12.3301   38.3524   34.7455 H   0  0  0  0  0  0  0  0  0  0  0  0
   16.7563   34.1781   32.4619 H   0  0  0  0  0  0  0  0  0  0  0  0
   16.6350   34.5298   37.1416 H   0  0  0  0  0  0  0  0  0  0  0  0
   15.3535   35.7357   37.5140 H   0  0  0  0  0  0  0  0  0  0  0  0
  1  2  2  0
  1  3  1  0
  3  4  1  0
  4  5  1  0
  6  1  1  0
  7  6  1  0
  6  8  1  0
  8  9  1  0
  9 10  2  0
 11  9  1  0
 10 12  1  0
 13 11  2  0
 12 14  2  0
 14 13  1  0
 14 15  1  0
 15 16  1  0
 16 17  1  0
 16 18  1  0
 18 19  2  0
 20 18  1  0
 19 21  1  0
 22 20  2  0
 20 23  1  0
 21 24  1  0
 21 25  2  0
 25 22  1  0
 23 26  1  0
 23 27  2  0
 24 28  1  0
 25 29  1  0
 28 29  1  0
  4 30  2  0
  4 31  1  0
 32 31  1  0
 32 33  1  0
 33 34  1  0
 33 35  1  0
 34 36  1  0
 35 37  1  0
 35 38  1  0
 38 36  1  0
 36 39  1  0
 38 40  1  0
 41 39  1  0
 42 39  1  0
 43 41  2  0
 41 44  1  0
 45 42  2  0
 46 43  1  0
 44 47  2  0
 44 45  1  0
 48 46  2  0
 48 47  1  0
 47 49  1  0
  6 50  1  1
  7 51  1  0
  7 52  1  0
  8 53  1  0
  8 54  1  0
 10 55  1  0
 11 56  1  0
 12 57  1  0
 13 58  1  0
 16 59  1  1
 17 60  1  0
 17 61  1  0
 17 62  1  0
 19 63  1  0
 22 64  1  0
 28 65  1  0
 28 66  1  0
 32 67  1  0
 32 68  1  0
 33 69  1  0
 35 70  1  0
 36 71  1  0
 37 72  1  0
 38 73  1  0
 40 74  1  0
 42 75  1  0
 46 76  1  0
 49 77  1  0
 49 78  1  0
M  CHG  3   5  -1  23   1  26  -1
M  END
>  <EmbedRMS>  (137) 
0.0814573007006

$$$$

     RDKit          3D

 78 83  0  0  0  0  0  0  0  0999 V2000
   10.2837   43.7628   33.8277 C   0  0  0  0  0  0  0  0  0  0  0  0
   11.4102   43.5864   34.3766 O   0  0  0  0  0  0  0  0  0  0  0  0
    9.3628   42.7238   33.7357 O   0  0  0  0  0  0  0  0  0  0  0  0
    9.8890   41.2252   34.2949 P   0  0  0  0  0  0  0  0  0  0  0  0
   10.3724   41.4549   35.8843 O   0  0  0  0  0  0  0  0  0  0  0  0
    9.9548   45.0701   33.2064 C   0  0  1  0  0  0  0  0  0  0  0  0
   11.0197   46.0482   33.4571 N   0  0  0  0  0  0  0  0  0  0  0  0
    9.7505   44.8512   31.6923 C   0  0  0  0  0  0  0  0  0  0  0  0
    8.7944   45.8419   31.0869 C   0  0  0  0  0  0  0  0  0  0  0  0
    7.4077   45.6003   31.1001 C   0  0  0  0  0  0  0  0  0  0  0  0
    9.2827   46.9890   30.4441 C   0  0  0  0  0  0  0  0  0  0  0  0
    6.5257   46.4993   30.4847 C   0  0  0  0  0  0  0  0  0  0  0  0
    8.4011   47.8879   29.8327 C   0  0  0  0  0  0  0  0  0  0  0  0
    7.0195   47.6561   29.8473 C   0  0  0  0  0  0  0  0  0  0  0  0
    6.1816   48.5980   29.2275 O   0  0  0  0  0  0  0  0  0  0  0  0
    4.7534   48.5456   29.2070 C   0  0  2  0  0  0  0  0  0  0  0  0
    4.2100   49.5758   28.2176 C   0  0  0  0  0  0  0  0  0  0  0  0
    4.1454   48.7569   30.5862 C   0  0  0  0  0  0  0  0  0  0  0  0
    2.9267   48.0910   30.8626 C   0  0  0  0  0  0  0  0  0  0  0  0
    4.7603   49.5473   31.6190 C   0  0  0  0  0  0  0  0  0  0  0  0
    2.3789   48.2021   32.1332 C   0  0  0  0  0  0  0  0  0  0  0  0
    4.1613   49.6093   32.8984 C   0  0  0  0  0  0  0  0  0  0  0  0
    5.9778   50.2771   31.4009 N   0  0  0  0  0  0  0  0  0  0  0  0
    1.2159   47.6366   32.6196 O   0  0  0  0  0  0  0  0  0  0  0  0
    2.9720   48.9258   33.1091 C   0  0  0  0  0  0  0  0  0  0  0  0
    6.0974   51.1243   30.3249 O   0  0  0  0  0  0  0  0  0  0  0  0
    6.8501   50.3118   32.2933 O   0  0  0  0  0  0  0  0  0  0  0  0
    1.0712   48.0329   33.9903 C   0  0  0  0  0  0  0  0  0  0  0  0
    2.2141   48.8554   34.2621 O   0  0  0  0  0  0  0  0  0  0  0  0
    8.8112   40.1834   34.2132 O   0  0  0  0  0  0  0  0  0  0  0  0
   11.2398   40.7938   33.3702 O   0  0  0  0  0  0  0  0  0  0  0  0
   10.9144   40.6912   31.9983 C   0  0  0  0  0  0  0  0  0  0  0  0
   11.5269   39.3911   31.4385 C   0  0  0  0  0  0  0  0  0  0  0  0
   12.7520   39.0910   32.0835 O   0  0  0  0  0  0  0  0  0  0  0  0
   10.6113   38.1931   31.6451 C   0  0  0  0  0  0  0  0  0  0  0  0
   12.9413   37.6837   32.0297 C   0  0  0  0  0  0  0  0  0  0  0  0
    9.6064   38.0877   30.6599 O   0  0  0  0  0  0  0  0  0  0  0  0
   11.5822   37.0197   31.6876 C   0  0  0  0  0  0  0  0  0  0  0  0
   13.4840   37.2104   33.3254 N   0  0  0  0  0  0  0  0  0  0  0  0
   11.6179   36.3072   30.4690 O   0  0  0  0  0  0  0  0  0  0  0  0
   14.4797   36.3309   33.5738 C   0  0  0  0  0  0  0  0  0  0  0  0
   13.1137   37.6269   34.5702 C   0  0  0  0  0  0  0  0  0  0  0  0
   15.2074   35.6152   32.6747 N   0  0  0  0  0  0  0  0  0  0  0  0
   14.6756   36.2298   34.9190 C   0  0  0  0  0  0  0  0  0  0  0  0
   13.8217   37.0446   35.5793 N   0  0  0  0  0  0  0  0  0  0  0  0
   16.1643   34.7603   33.1551 C   0  0  0  0  0  0  0  0  0  0  0  0
   15.6528   35.3503   35.4136 C   0  0  0  0  0  0  0  0  0  0  0  0
   16.3798   34.6316   34.5046 N   0  0  0  0  0  0  0  0  0  0  0  0
   15.9004   35.1930   36.8094 N   0  0  0  0  0  0  0  0  0  0  0  0
    9.0097   45.4351   33.6669 H   0  0  0  0  0  0  0  0  0  0  0  0
   11.1130   46.1995   34.4885 H   0  0  0  0  0  0  0  0  0  0  0  0
   11.9348   45.6934   33.0931 H   0  0  0  0  0  0  0  0  0  0  0  0
   10.7309   44.8932   31.1677 H   0  0  0  0  0  0  0  0  0  0  0  0
    9.3518   43.8345   31.4759 H   0  0  0  0  0  0  0  0  0  0  0  0
    7.0126   44.7147   31.5826 H   0  0  0  0  0  0  0  0  0  0  0  0
   10.3467   47.1896   30.4150 H   0  0  0  0  0  0  0  0  0  0  0  0
    5.4674   46.2830   30.5139 H   0  0  0  0  0  0  0  0  0  0  0  0
    8.7934   48.7719   29.3462 H   0  0  0  0  0  0  0  0  0  0  0  0
    4.4554   47.5471   28.8150 H   0  0  0  0  0  0  0  0  0  0  0  0
    4.4208   50.6107   28.5529 H   0  0  0  0  0  0  0  0  0  0  0  0
    4.6773   49.4224   27.2218 H   0  0  0  0  0  0  0  0  0  0  0  0
    3.1105   49.4567   28.1097 H   0  0  0  0  0  0  0  0  0  0  0  0
    2.4279   47.4906   30.1120 H   0  0  0  0  0  0  0  0  0  0  0  0
    4.6024   50.1895   33.6988 H   0  0  0  0  0  0  0  0  0  0  0  0
    0.1373   48.6181   34.1243 H   0  0  0  0  0  0  0  0  0  0  0  0
    1.0755   47.1404   34.6506 H   0  0  0  0  0  0  0  0  0  0  0  0
    9.8235   40.7202   31.7651 H   0  0  0  0  0  0  0  0  0  0  0  0
   11.3780   41.5548   31.4750 H   0  0  0  0  0  0  0  0  0  0  0  0
   11.7310   39.5363   30.3531 H   0  0  0  0  0  0  0  0  0  0  0  0
   10.1203   38.2695   32.6410 H   0  0  0  0  0  0  0  0  0  0  0  0
   13.6850   37.4638   31.2321 H   0  0  0  0  0  0  0  0  0  0  0  0
   10.0250   38.1791   29.7654 H   0  0  0  0  0  0  0  0  0  0  0  0
   11.2757   36.3135   32.4907 H   0  0  0  0  0  0  0  0  0  0  0  0
   11.9837   36.9111   29.7708 H   0  0  0  0  0  0  0  0  0  0  0  0
   12.3307   38.3536   34.7457 H   0  0  0  0  0  0  0  0  0  0  0  0
   16.7566   34.1786   32.4623 H   0  0  0  0  0  0  0  0  0  0  0  0
   16.6353   34.5301   37.1419 H   0  0  0  0  0  0  0  0  0  0  0  0
   15.3535   35.7355   37.5144 H   0  0  0  0  0  0  0  0  0  0  0  0
  1  2  2  0
  1  3  1  0
  3  4  1  0
  4  5  1  0
  6  1  1  0
  7  6  1  0
  6  8  1  0
  8  9  1  0
  9 10  2  0
 11  9  1  0
 10 12  1  0
 13 11  2  0
 12 14  2  0
 14 13  1  0
 14 15  1  0
 15 16  1  0
 16 17  1  0
 16 18  1  0
 18 19  2  0
 20 18  1  0
 19 21  1  0
 22 20  2  0
 20 23  1  0
 21 24  1  0
 21 25  2  0
 25 22  1  0
 23 26  1  0
 23 27  2  0
 24 28  1  0
 25 29  1  0
 28 29  1  0
  4 30  2  0
  4 31  1  0
 32 31  1  0
 32 33  1  0
 33 34  1  0
 33 35  1  0
 34 36  1  0
 35 37  1  0
 35 38  1  0
 38 36  1  0
 36 39  1  0
 38 40  1  0
 41 39  1  0
 42 39  1  0
 43 41  2  0
 41 44  1  0
 45 42  2  0
 46 43  1  0
 44 47  2  0
 44 45  1  0
 48 46  2  0
 48 47  1  0
 47 49  1  0
  6 50  1  1
  7 51  1  0
  7 52  1  0
  8 53  1  0
  8 54  1  0
 10 55  1  0
 11 56  1  0
 12 57  1  0
 13 58  1  0
 16 59  1  6
 17 60  1  0
 17 61  1  0
 17 62  1  0
 19 63  1  0
 22 64  1  0
 28 65  1  0
 28 66  1  0
 32 67  1  0
 32 68  1  0
 33 69  1  0
 35 70  1  0
 36 71  1  0
 37 72  1  0
 38 73  1  0
 40 74  1  0
 42 75  1  0
 46 76  1  0
 49 77  1  0
 49 78  1  0
M  CHG  3   5  -1  23   1  26  -1
M  END
>  <EmbedRMS>  (138) 
0.0817319955973

$$$$

     RDKit          3D

 78 83  0  0  0  0  0  0  0  0999 V2000
   10.2802   43.7665   33.8246 C   0  0  0  0  0  0  0  0  0  0  0  0
   11.4109   43.5920   34.3664 O   0  0  0  0  0  0  0  0  0  0  0  0
    9.3615   42.7251   33.7346 O   0  0  0  0  0  0  0  0  0  0  0  0
    9.8898   41.2269   34.2939 P   0  0  0  0  0  0  0  0  0  0  0  0
   10.3738   41.4567   35.8830 O   0  0  0  0  0  0  0  0  0  0  0  0
    9.9458   45.0737   33.2106 C   0  0  1  0  0  0  0  0  0  0  0  0
   11.0266   46.0292   33.4702 N   0  0  0  0  0  0  0  0  0  0  0  0
    9.7534   44.8541   31.6942 C   0  0  0  0  0  0  0  0  0  0  0  0
    8.7953   45.8413   31.0840 C   0  0  0  0  0  0  0  0  0  0  0  0
    7.4070   45.6009   31.1020 C   0  0  0  0  0  0  0  0  0  0  0  0
    9.2832   46.9899   30.4402 C   0  0  0  0  0  0  0  0  0  0  0  0
    6.5255   46.5024   30.4883 C   0  0  0  0  0  0  0  0  0  0  0  0
    8.4005   47.8908   29.8331 C   0  0  0  0  0  0  0  0  0  0  0  0
    7.0205   47.6446   29.8444 C   0  0  0  0  0  0  0  0  0  0  0  0
    6.1404   48.5504   29.2472 O   0  0  0  0  0  0  0  0  0  0  0  0
    5.7813   48.5221   27.8620 C   0  0  2  0  0  0  0  0  0  0  0  0
    4.8095   47.3763   27.5598 C   0  0  0  0  0  0  0  0  0  0  0  0
    7.0100   48.6012   26.9568 C   0  0  0  0  0  0  0  0  0  0  0  0
    7.4539   49.8964   26.5891 C   0  0  0  0  0  0  0  0  0  0  0  0
    7.7847   47.4640   26.5396 C   0  0  0  0  0  0  0  0  0  0  0  0
    8.6123   50.0187   25.8329 C   0  0  0  0  0  0  0  0  0  0  0  0
    8.9555   47.6490   25.7742 C   0  0  0  0  0  0  0  0  0  0  0  0
    7.4031   46.1259   26.8602 N   0  0  0  0  0  0  0  0  0  0  0  0
    9.2184   51.1710   25.3706 O   0  0  0  0  0  0  0  0  0  0  0  0
    9.3318   48.9425   25.4433 C   0  0  0  0  0  0  0  0  0  0  0  0
    6.6183   45.4318   25.9694 O   0  0  0  0  0  0  0  0  0  0  0  0
    8.0707   45.4859   27.6975 O   0  0  0  0  0  0  0  0  0  0  0  0
   10.3936   50.7908   24.6418 C   0  0  0  0  0  0  0  0  0  0  0  0
   10.4282   49.3588   24.7130 O   0  0  0  0  0  0  0  0  0  0  0  0
    8.8123   40.1845   34.2134 O   0  0  0  0  0  0  0  0  0  0  0  0
   11.2400   40.7954   33.3679 O   0  0  0  0  0  0  0  0  0  0  0  0
   10.9124   40.6877   31.9966 C   0  0  0  0  0  0  0  0  0  0  0  0
   11.5169   39.3811   31.4420 C   0  0  0  0  0  0  0  0  0  0  0  0
   12.7500   39.0881   32.0760 O   0  0  0  0  0  0  0  0  0  0  0  0
   10.6043   38.1893   31.6659 C   0  0  0  0  0  0  0  0  0  0  0  0
   12.9395   37.6814   32.0280 C   0  0  0  0  0  0  0  0  0  0  0  0
    9.6353   38.0951   30.6499 O   0  0  0  0  0  0  0  0  0  0  0  0
   11.5804   37.0191   31.6934 C   0  0  0  0  0  0  0  0  0  0  0  0
   13.4851   37.2119   33.3244 N   0  0  0  0  0  0  0  0  0  0  0  0
   11.6118   36.3189   30.4673 O   0  0  0  0  0  0  0  0  0  0  0  0
   14.4801   36.3316   33.5732 C   0  0  0  0  0  0  0  0  0  0  0  0
   13.1139   37.6277   34.5692 C   0  0  0  0  0  0  0  0  0  0  0  0
   15.2076   35.6154   32.6744 N   0  0  0  0  0  0  0  0  0  0  0  0
   14.6756   36.2303   34.9186 C   0  0  0  0  0  0  0  0  0  0  0  0
   13.8215   37.0451   35.5786 N   0  0  0  0  0  0  0  0  0  0  0  0
   16.1642   34.7602   33.1551 C   0  0  0  0  0  0  0  0  0  0  0  0
   15.6526   35.3505   35.4134 C   0  0  0  0  0  0  0  0  0  0  0  0
   16.3795   34.6316   34.5046 N   0  0  0  0  0  0  0  0  0  0  0  0
   15.9000   35.1933   36.8093 N   0  0  0  0  0  0  0  0  0  0  0  0
    8.9995   45.4383   33.6716 H   0  0  0  0  0  0  0  0  0  0  0  0
   10.7765   46.9368   33.0150 H   0  0  0  0  0  0  0  0  0  0  0  0
   11.0501   46.2279   34.4975 H   0  0  0  0  0  0  0  0  0  0  0  0
    9.3634   43.8356   31.4706 H   0  0  0  0  0  0  0  0  0  0  0  0
   10.7403   44.9076   31.1825 H   0  0  0  0  0  0  0  0  0  0  0  0
    7.0115   44.7179   31.5887 H   0  0  0  0  0  0  0  0  0  0  0  0
   10.3469   47.1904   30.4075 H   0  0  0  0  0  0  0  0  0  0  0  0
    5.4602   46.3128   30.5137 H   0  0  0  0  0  0  0  0  0  0  0  0
    8.7892   48.7768   29.3475 H   0  0  0  0  0  0  0  0  0  0  0  0
    5.1825   49.4426   27.6829 H   0  0  0  0  0  0  0  0  0  0  0  0
    3.8322   47.5839   28.0454 H   0  0  0  0  0  0  0  0  0  0  0  0
    4.6406   47.2903   26.4654 H   0  0  0  0  0  0  0  0  0  0  0  0
    5.1729   46.4119   27.9645 H   0  0  0  0  0  0  0  0  0  0  0  0
    6.9210   50.7872   26.8972 H   0  0  0  0  0  0  0  0  0  0  0  0
    9.5503   46.8052   25.4481 H   0  0  0  0  0  0  0  0  0  0  0  0
   10.3133   51.1201   23.5847 H   0  0  0  0  0  0  0  0  0  0  0  0
   11.2984   51.2201   25.1210 H   0  0  0  0  0  0  0  0  0  0  0  0
    9.8215   40.7221   31.7644 H   0  0  0  0  0  0  0  0  0  0  0  0
   11.3807   41.5456   31.4682 H   0  0  0  0  0  0  0  0  0  0  0  0
   11.6986   39.5088   30.3498 H   0  0  0  0  0  0  0  0  0  0  0  0
   10.1109   38.2737   32.6630 H   0  0  0  0  0  0  0  0  0  0  0  0
   13.6783   37.4562   31.2271 H   0  0  0  0  0  0  0  0  0  0  0  0
    9.0020   37.3860   30.9348 H   0  0  0  0  0  0  0  0  0  0  0  0
   11.2807   36.3053   32.4921 H   0  0  0  0  0  0  0  0  0  0  0  0
   11.8819   36.9600   29.7584 H   0  0  0  0  0  0  0  0  0  0  0  0
   12.3303   38.3538   34.7446 H   0  0  0  0  0  0  0  0  0  0  0  0
   16.7563   34.1783   32.4624 H   0  0  0  0  0  0  0  0  0  0  0  0
   15.3532   35.7359   37.5142 H   0  0  0  0  0  0  0  0  0  0  0  0
   16.6347   34.5301   37.1419 H   0  0  0  0  0  0  0  0  0  0  0  0
  1  2  2  0
  1  3  1  0
  3  4  1  0
  4  5  1  0
  6  1  1  0
  7  6  1  0
  6  8  1  0
  8  9  1  0
  9 10  2  0
 11  9  1  0
 10 12  1  0
 13 11  2  0
 12 14  2  0
 14 13  1  0
 14 15  1  0
 15 16  1  0
 16 17  1  0
 16 18  1  0
 18 19  2  0
 20 18  1  0
 19 21  1  0
 22 20  2  0
 20 23  1  0
 21 24  1  0
 21 25  2  0
 25 22  1  0
 23 26  1  0
 23 27  2  0
 24 28  1  0
 25 29  1  0
 28 29  1  0
  4 30  2  0
  4 31  1  0
 32 31  1  0
 32 33  1  0
 33 34  1  0
 33 35  1  0
 34 36  1  0
 35 37  1  0
 35 38  1  0
 38 36  1  0
 36 39  1  0
 38 40  1  0
 41 39  1  0
 42 39  1  0
 43 41  2  0
 41 44  1  0
 45 42  2  0
 46 43  1  0
 44 47  2  0
 44 45  1  0
 48 46  2  0
 48 47  1  0
 47 49  1  0
  6 50  1  1
  7 51  1  0
  7 52  1  0
  8 53  1  0
  8 54  1  0
 10 55  1  0
 11 56  1  0
 12 57  1  0
 13 58  1  0
 16 59  1  6
 17 60  1  0
 17 61  1  0
 17 62  1  0
 19 63  1  0
 22 64  1  0
 28 65  1  0
 28 66  1  0
 32 67  1  0
 32 68  1  0
 33 69  1  0
 35 70  1  0
 36 71  1  0
 37 72  1  0
 38 73  1  0
 40 74  1  0
 42 75  1  0
 46 76  1  0
 49 77  1  0
 49 78  1  0
M  CHG  3   5  -1  23   1  26  -1
M  END
>  <EmbedRMS>  (139) 
0.08150816848

$$$$

     RDKit          3D

 78 83  0  0  0  0  0  0  0  0999 V2000
   10.2803   43.7665   33.8250 C   0  0  0  0  0  0  0  0  0  0  0  0
   11.4109   43.5920   34.3667 O   0  0  0  0  0  0  0  0  0  0  0  0
    9.3618   42.7250   33.7345 O   0  0  0  0  0  0  0  0  0  0  0  0
    9.8902   41.2266   34.2932 P   0  0  0  0  0  0  0  0  0  0  0  0
   10.3743   41.4564   35.8824 O   0  0  0  0  0  0  0  0  0  0  0  0
    9.9458   45.0736   33.2110 C   0  0  1  0  0  0  0  0  0  0  0  0
   11.0266   46.0292   33.4703 N   0  0  0  0  0  0  0  0  0  0  0  0
    9.7534   44.8537   31.6948 C   0  0  0  0  0  0  0  0  0  0  0  0
    8.7954   45.8407   31.0845 C   0  0  0  0  0  0  0  0  0  0  0  0
    7.4085   45.6009   31.1013 C   0  0  0  0  0  0  0  0  0  0  0  0
    9.2827   46.9880   30.4408 C   0  0  0  0  0  0  0  0  0  0  0  0
    6.5283   46.5017   30.4861 C   0  0  0  0  0  0  0  0  0  0  0  0
    8.4023   47.8898   29.8320 C   0  0  0  0  0  0  0  0  0  0  0  0
    7.0139   47.6497   29.8448 C   0  0  0  0  0  0  0  0  0  0  0  0
    6.0857   48.5135   29.2404 O   0  0  0  0  0  0  0  0  0  0  0  0
    6.4064   49.6462   28.4318 C   0  0  2  0  0  0  0  0  0  0  0  0
    5.1465   50.4811   28.2000 C   0  0  0  0  0  0  0  0  0  0  0  0
    7.0376   49.2286   27.1100 C   0  0  0  0  0  0  0  0  0  0  0  0
    8.3017   49.7770   26.7796 C   0  0  0  0  0  0  0  0  0  0  0  0
    6.3874   48.3603   26.1660 C   0  0  0  0  0  0  0  0  0  0  0  0
    8.8710   49.4521   25.5557 C   0  0  0  0  0  0  0  0  0  0  0  0
    7.0092   48.0800   24.9291 C   0  0  0  0  0  0  0  0  0  0  0  0
    5.1000   47.7827   26.4205 N   0  0  0  0  0  0  0  0  0  0  0  0
   10.0826   49.8649   25.0355 O   0  0  0  0  0  0  0  0  0  0  0  0
    8.2517   48.6407   24.6692 C   0  0  0  0  0  0  0  0  0  0  0  0
    4.1441   47.8035   25.4317 O   0  0  0  0  0  0  0  0  0  0  0  0
    4.9351   47.0260   27.3981 O   0  0  0  0  0  0  0  0  0  0  0  0
   10.2324   49.2712   23.7387 C   0  0  0  0  0  0  0  0  0  0  0  0
    9.0405   48.4979   23.5439 O   0  0  0  0  0  0  0  0  0  0  0  0
    8.8124   40.1845   34.2132 O   0  0  0  0  0  0  0  0  0  0  0  0
   11.2401   40.7949   33.3667 O   0  0  0  0  0  0  0  0  0  0  0  0
   10.9124   40.6860   31.9953 C   0  0  0  0  0  0  0  0  0  0  0  0
   11.5174   39.3787   31.4406 C   0  0  0  0  0  0  0  0  0  0  0  0
   12.7490   39.0864   32.0752 O   0  0  0  0  0  0  0  0  0  0  0  0
   10.6060   38.1868   31.6657 C   0  0  0  0  0  0  0  0  0  0  0  0
   12.9356   37.6796   32.0292 C   0  0  0  0  0  0  0  0  0  0  0  0
    9.6398   38.0904   30.6472 O   0  0  0  0  0  0  0  0  0  0  0  0
   11.5765   37.0145   31.7043 C   0  0  0  0  0  0  0  0  0  0  0  0
   13.4860   37.2124   33.3243 N   0  0  0  0  0  0  0  0  0  0  0  0
   11.6101   36.3398   30.4672 O   0  0  0  0  0  0  0  0  0  0  0  0
   14.4806   36.3319   33.5729 C   0  0  0  0  0  0  0  0  0  0  0  0
   13.1145   37.6275   34.5693 C   0  0  0  0  0  0  0  0  0  0  0  0
   15.2076   35.6153   32.6741 N   0  0  0  0  0  0  0  0  0  0  0  0
   14.6761   36.2303   34.9184 C   0  0  0  0  0  0  0  0  0  0  0  0
   13.8219   37.0447   35.5786 N   0  0  0  0  0  0  0  0  0  0  0  0
   16.1641   34.7599   33.1548 C   0  0  0  0  0  0  0  0  0  0  0  0
   15.6528   35.3503   35.4132 C   0  0  0  0  0  0  0  0  0  0  0  0
   16.3795   34.6313   34.5043 N   0  0  0  0  0  0  0  0  0  0  0  0
   15.9003   35.1932   36.8091 N   0  0  0  0  0  0  0  0  0  0  0  0
    8.9995   45.4382   33.6720 H   0  0  0  0  0  0  0  0  0  0  0  0
   11.0504   46.2276   34.4977 H   0  0  0  0  0  0  0  0  0  0  0  0
   10.7761   46.9369   33.0155 H   0  0  0  0  0  0  0  0  0  0  0  0
   10.7403   44.9067   31.1830 H   0  0  0  0  0  0  0  0  0  0  0  0
    9.3633   43.8350   31.4715 H   0  0  0  0  0  0  0  0  0  0  0  0
    7.0126   44.7169   31.5858 H   0  0  0  0  0  0  0  0  0  0  0  0
   10.3467   47.1880   30.4103 H   0  0  0  0  0  0  0  0  0  0  0  0
    5.4641   46.3036   30.5040 H   0  0  0  0  0  0  0  0  0  0  0  0
    8.8152   48.7684   29.3606 H   0  0  0  0  0  0  0  0  0  0  0  0
    7.1013   50.2989   29.0057 H   0  0  0  0  0  0  0  0  0  0  0  0
    5.3774   51.3514   27.5491 H   0  0  0  0  0  0  0  0  0  0  0  0
    4.3422   49.8799   27.7300 H   0  0  0  0  0  0  0  0  0  0  0  0
    4.7683   50.8615   29.1727 H   0  0  0  0  0  0  0  0  0  0  0  0
    8.8241   50.4467   27.4509 H   0  0  0  0  0  0  0  0  0  0  0  0
    6.5399   47.4339   24.1983 H   0  0  0  0  0  0  0  0  0  0  0  0
   10.3086   50.0602   22.9615 H   0  0  0  0  0  0  0  0  0  0  0  0
   11.1248   48.6112   23.7193 H   0  0  0  0  0  0  0  0  0  0  0  0
    9.8213   40.7202   31.7635 H   0  0  0  0  0  0  0  0  0  0  0  0
   11.3801   41.5437   31.4662 H   0  0  0  0  0  0  0  0  0  0  0  0
   11.6997   39.5041   30.3482 H   0  0  0  0  0  0  0  0  0  0  0  0
   10.1084   38.2767   32.6604 H   0  0  0  0  0  0  0  0  0  0  0  0
   13.6680   37.4520   31.2228 H   0  0  0  0  0  0  0  0  0  0  0  0
    9.0015   37.3869   30.9348 H   0  0  0  0  0  0  0  0  0  0  0  0
   11.2666   36.3061   32.5082 H   0  0  0  0  0  0  0  0  0  0  0  0
   12.1388   35.5126   30.6149 H   0  0  0  0  0  0  0  0  0  0  0  0
   12.3299   38.3524   34.7448 H   0  0  0  0  0  0  0  0  0  0  0  0
   16.7560   34.1777   32.4620 H   0  0  0  0  0  0  0  0  0  0  0  0
   16.6350   34.5300   37.1415 H   0  0  0  0  0  0  0  0  0  0  0  0
   15.3537   35.7360   37.5141 H   0  0  0  0  0  0  0  0  0  0  0  0
  1  2  2  0
  1  3  1  0
  3  4  1  0
  4  5  1  0
  6  1  1  0
  7  6  1  0
  6  8  1  0
  8  9  1  0
  9 10  2  0
 11  9  1  0
 10 12  1  0
 13 11  2  0
 12 14  2  0
 14 13  1  0
 14 15  1  0
 15 16  1  0
 16 17  1  0
 16 18  1  0
 18 19  2  0
 20 18  1  0
 19 21  1  0
 22 20  2  0
 20 23  1  0
 21 24  1  0
 21 25  2  0
 25 22  1  0
 23 26  1  0
 23 27  2  0
 24 28  1  0
 25 29  1  0
 28 29  1  0
  4 30  2  0
  4 31  1  0
 32 31  1  0
 32 33  1  0
 33 34  1  0
 33 35  1  0
 34 36  1  0
 35 37  1  0
 35 38  1  0
 38 36  1  0
 36 39  1  0
 38 40  1  0
 41 39  1  0
 42 39  1  0
 43 41  2  0
 41 44  1  0
 45 42  2  0
 46 43  1  0
 44 47  2  0
 44 45  1  0
 48 46  2  0
 48 47  1  0
 47 49  1  0
  6 50  1  1
  7 51  1  0
  7 52  1  0
  8 53  1  0
  8 54  1  0
 10 55  1  0
 11 56  1  0
 12 57  1  0
 13 58  1  0
 16 59  1  1
 17 60  1  0
 17 61  1  0
 17 62  1  0
 19 63  1  0
 22 64  1  0
 28 65  1  0
 28 66  1  0
 32 67  1  0
 32 68  1  0
 33 69  1  0
 35 70  1  0
 36 71  1  0
 37 72  1  0
 38 73  1  0
 40 74  1  0
 42 75  1  0
 46 76  1  0
 49 77  1  0
 49 78  1  0
M  CHG  3   5  -1  23   1  26  -1
M  END
>  <EmbedRMS>  (140) 
0.0822242150486

$$$$

     RDKit          3D

 78 83  0  0  0  0  0  0  0  0999 V2000
   10.2834   43.7662   33.8256 C   0  0  0  0  0  0  0  0  0  0  0  0
   11.4101   43.5930   34.3752 O   0  0  0  0  0  0  0  0  0  0  0  0
    9.3636   42.7255   33.7349 O   0  0  0  0  0  0  0  0  0  0  0  0
    9.8905   41.2266   34.2934 P   0  0  0  0  0  0  0  0  0  0  0  0
   10.3744   41.4557   35.8827 O   0  0  0  0  0  0  0  0  0  0  0  0
    9.9546   45.0695   33.2035 C   0  0  1  0  0  0  0  0  0  0  0  0
   11.0274   46.0321   33.4755 N   0  0  0  0  0  0  0  0  0  0  0  0
    9.7466   44.8480   31.6875 C   0  0  0  0  0  0  0  0  0  0  0  0
    8.7923   45.8407   31.0842 C   0  0  0  0  0  0  0  0  0  0  0  0
    7.4055   45.6018   31.0995 C   0  0  0  0  0  0  0  0  0  0  0  0
    9.2823   46.9879   30.4426 C   0  0  0  0  0  0  0  0  0  0  0  0
    6.5266   46.5036   30.4846 C   0  0  0  0  0  0  0  0  0  0  0  0
    8.4033   47.8903   29.8325 C   0  0  0  0  0  0  0  0  0  0  0  0
    7.0141   47.6519   29.8457 C   0  0  0  0  0  0  0  0  0  0  0  0
    6.0891   48.5189   29.2410 O   0  0  0  0  0  0  0  0  0  0  0  0
    6.4231   49.6787   28.4735 C   0  0  2  0  0  0  0  0  0  0  0  0
    5.1443   50.4640   28.1883 C   0  0  0  0  0  0  0  0  0  0  0  0
    7.0906   49.2810   27.1675 C   0  0  0  0  0  0  0  0  0  0  0  0
    6.5516   48.1938   26.4366 C   0  0  0  0  0  0  0  0  0  0  0  0
    8.2734   49.9335   26.6838 C   0  0  0  0  0  0  0  0  0  0  0  0
    7.2142   47.7700   25.2924 C   0  0  0  0  0  0  0  0  0  0  0  0
    8.9135   49.4464   25.5218 C   0  0  0  0  0  0  0  0  0  0  0  0
    8.8258   51.0849   27.3406 N   0  0  0  0  0  0  0  0  0  0  0  0
    6.8816   46.7337   24.4414 O   0  0  0  0  0  0  0  0  0  0  0  0
    8.3480   48.3661   24.8575 C   0  0  0  0  0  0  0  0  0  0  0  0
   10.1896   51.2622   27.3761 O   0  0  0  0  0  0  0  0  0  0  0  0
    8.0868   52.0355   27.6692 O   0  0  0  0  0  0  0  0  0  0  0  0
    7.8714   46.6776   23.4050 C   0  0  0  0  0  0  0  0  0  0  0  0
    8.7886   47.7375   23.7088 O   0  0  0  0  0  0  0  0  0  0  0  0
    8.8122   40.1850   34.2128 O   0  0  0  0  0  0  0  0  0  0  0  0
   11.2403   40.7946   33.3668 O   0  0  0  0  0  0  0  0  0  0  0  0
   10.9126   40.6859   31.9954 C   0  0  0  0  0  0  0  0  0  0  0  0
   11.5175   39.3787   31.4405 C   0  0  0  0  0  0  0  0  0  0  0  0
   12.7490   39.0864   32.0752 O   0  0  0  0  0  0  0  0  0  0  0  0
   10.6061   38.1868   31.6656 C   0  0  0  0  0  0  0  0  0  0  0  0
   12.9355   37.6796   32.0292 C   0  0  0  0  0  0  0  0  0  0  0  0
    9.6399   38.0903   30.6471 O   0  0  0  0  0  0  0  0  0  0  0  0
   11.5765   37.0145   31.7044 C   0  0  0  0  0  0  0  0  0  0  0  0
   13.4858   37.2125   33.3244 N   0  0  0  0  0  0  0  0  0  0  0  0
   11.6101   36.3397   30.4673 O   0  0  0  0  0  0  0  0  0  0  0  0
   14.4805   36.3319   33.5729 C   0  0  0  0  0  0  0  0  0  0  0  0
   13.1143   37.6276   34.5694 C   0  0  0  0  0  0  0  0  0  0  0  0
   15.2076   35.6153   32.6741 N   0  0  0  0  0  0  0  0  0  0  0  0
   14.6760   36.2304   34.9184 C   0  0  0  0  0  0  0  0  0  0  0  0
   13.8219   37.0449   35.5786 N   0  0  0  0  0  0  0  0  0  0  0  0
   16.1641   34.7600   33.1548 C   0  0  0  0  0  0  0  0  0  0  0  0
   15.6528   35.3505   35.4132 C   0  0  0  0  0  0  0  0  0  0  0  0
   16.3795   34.6314   34.5043 N   0  0  0  0  0  0  0  0  0  0  0  0
   15.9002   35.1931   36.8091 N   0  0  0  0  0  0  0  0  0  0  0  0
    9.0121   45.4318   33.6713 H   0  0  0  0  0  0  0  0  0  0  0  0
   10.7260   46.9687   33.1212 H   0  0  0  0  0  0  0  0  0  0  0  0
   11.8906   45.7658   32.9468 H   0  0  0  0  0  0  0  0  0  0  0  0
   10.7230   44.8814   31.1555 H   0  0  0  0  0  0  0  0  0  0  0  0
    9.3415   43.8329   31.4761 H   0  0  0  0  0  0  0  0  0  0  0  0
    7.0083   44.7172   31.5818 H   0  0  0  0  0  0  0  0  0  0  0  0
   10.3468   47.1855   30.4128 H   0  0  0  0  0  0  0  0  0  0  0  0
    5.4621   46.3068   30.5016 H   0  0  0  0  0  0  0  0  0  0  0  0
    8.8171   48.7664   29.3546 H   0  0  0  0  0  0  0  0  0  0  0  0
    7.0799   50.3233   29.0929 H   0  0  0  0  0  0  0  0  0  0  0  0
    4.6768   50.7789   29.1453 H   0  0  0  0  0  0  0  0  0  0  0  0
    5.3733   51.3730   27.5923 H   0  0  0  0  0  0  0  0  0  0  0  0
    4.4168   49.8381   27.6285 H   0  0  0  0  0  0  0  0  0  0  0  0
    5.6567   47.6798   26.7639 H   0  0  0  0  0  0  0  0  0  0  0  0
    9.8104   49.9125   25.1349 H   0  0  0  0  0  0  0  0  0  0  0  0
    7.4007   46.8504   22.4146 H   0  0  0  0  0  0  0  0  0  0  0  0
    8.3956   45.6992   23.4272 H   0  0  0  0  0  0  0  0  0  0  0  0
    9.8215   40.7200   31.7636 H   0  0  0  0  0  0  0  0  0  0  0  0
   11.3803   41.5437   31.4663 H   0  0  0  0  0  0  0  0  0  0  0  0
   11.6998   39.5041   30.3482 H   0  0  0  0  0  0  0  0  0  0  0  0
   10.1085   38.2767   32.6603 H   0  0  0  0  0  0  0  0  0  0  0  0
   13.6680   37.4520   31.2229 H   0  0  0  0  0  0  0  0  0  0  0  0
    9.0016   37.3868   30.9349 H   0  0  0  0  0  0  0  0  0  0  0  0
   11.2666   36.3062   32.5083 H   0  0  0  0  0  0  0  0  0  0  0  0
   12.1389   35.5126   30.6150 H   0  0  0  0  0  0  0  0  0  0  0  0
   12.3300   38.3529   34.7449 H   0  0  0  0  0  0  0  0  0  0  0  0
   16.7560   34.1779   32.4621 H   0  0  0  0  0  0  0  0  0  0  0  0
   15.3534   35.7359   37.5140 H   0  0  0  0  0  0  0  0  0  0  0  0
   16.6347   34.5298   37.1416 H   0  0  0  0  0  0  0  0  0  0  0  0
  1  2  2  0
  1  3  1  0
  3  4  1  0
  4  5  1  0
  6  1  1  0
  7  6  1  0
  6  8  1  0
  8  9  1  0
  9 10  2  0
 11  9  1  0
 10 12  1  0
 13 11  2  0
 12 14  2  0
 14 13  1  0
 14 15  1  0
 15 16  1  0
 16 17  1  0
 16 18  1  0
 18 19  2  0
 20 18  1  0
 19 21  1  0
 22 20  2  0
 20 23  1  0
 21 24  1  0
 21 25  2  0
 25 22  1  0
 23 26  1  0
 23 27  2  0
 24 28  1  0
 25 29  1  0
 28 29  1  0
  4 30  2  0
  4 31  1  0
 32 31  1  0
 32 33  1  0
 33 34  1  0
 33 35  1  0
 34 36  1  0
 35 37  1  0
 35 38  1  0
 38 36  1  0
 36 39  1  0
 38 40  1  0
 41 39  1  0
 42 39  1  0
 43 41  2  0
 41 44  1  0
 45 42  2  0
 46 43  1  0
 44 47  2  0
 44 45  1  0
 48 46  2  0
 48 47  1  0
 47 49  1  0
  6 50  1  1
  7 51  1  0
  7 52  1  0
  8 53  1  0
  8 54  1  0
 10 55  1  0
 11 56  1  0
 12 57  1  0
 13 58  1  0
 16 59  1  1
 17 60  1  0
 17 61  1  0
 17 62  1  0
 19 63  1  0
 22 64  1  0
 28 65  1  0
 28 66  1  0
 32 67  1  0
 32 68  1  0
 33 69  1  0
 35 70  1  0
 36 71  1  0
 37 72  1  0
 38 73  1  0
 40 74  1  0
 42 75  1  0
 46 76  1  0
 49 77  1  0
 49 78  1  0
M  CHG  3   5  -1  23   1  26  -1
M  END
>  <EmbedRMS>  (141) 
0.0824072514875

$$$$

     RDKit          3D

 78 83  0  0  0  0  0  0  0  0999 V2000
   10.2835   43.7661   33.8253 C   0  0  0  0  0  0  0  0  0  0  0  0
   11.4102   43.5931   34.3752 O   0  0  0  0  0  0  0  0  0  0  0  0
    9.3640   42.7253   33.7345 O   0  0  0  0  0  0  0  0  0  0  0  0
    9.8907   41.2265   34.2938 P   0  0  0  0  0  0  0  0  0  0  0  0
   10.3732   41.4560   35.8835 O   0  0  0  0  0  0  0  0  0  0  0  0
    9.9546   45.0695   33.2033 C   0  0  1  0  0  0  0  0  0  0  0  0
   11.0272   46.0322   33.4755 N   0  0  0  0  0  0  0  0  0  0  0  0
    9.7465   44.8485   31.6872 C   0  0  0  0  0  0  0  0  0  0  0  0
    8.7920   45.8411   31.0840 C   0  0  0  0  0  0  0  0  0  0  0  0
    7.4040   45.6013   31.0997 C   0  0  0  0  0  0  0  0  0  0  0  0
    9.2822   46.9898   30.4420 C   0  0  0  0  0  0  0  0  0  0  0  0
    6.5244   46.5033   30.4856 C   0  0  0  0  0  0  0  0  0  0  0  0
    8.4007   47.8909   29.8325 C   0  0  0  0  0  0  0  0  0  0  0  0
    7.0215   47.6487   29.8468 C   0  0  0  0  0  0  0  0  0  0  0  0
    6.1512   48.5499   29.2305 O   0  0  0  0  0  0  0  0  0  0  0  0
    5.7000   48.3623   27.8911 C   0  0  2  0  0  0  0  0  0  0  0  0
    5.0806   49.6547   27.3560 C   0  0  0  0  0  0  0  0  0  0  0  0
    4.7417   47.1834   27.7885 C   0  0  0  0  0  0  0  0  0  0  0  0
    5.1395   46.0838   26.9881 C   0  0  0  0  0  0  0  0  0  0  0  0
    3.4582   47.1443   28.4388 C   0  0  0  0  0  0  0  0  0  0  0  0
    4.2677   45.0135   26.8431 C   0  0  0  0  0  0  0  0  0  0  0  0
    2.6078   46.0337   28.2375 C   0  0  0  0  0  0  0  0  0  0  0  0
    2.9943   48.2044   29.2884 N   0  0  0  0  0  0  0  0  0  0  0  0
    4.4473   43.8520   26.1167 O   0  0  0  0  0  0  0  0  0  0  0  0
    3.0543   44.9910   27.4384 C   0  0  0  0  0  0  0  0  0  0  0  0
    1.6719   48.5813   29.2431 O   0  0  0  0  0  0  0  0  0  0  0  0
    3.7038   48.6188   30.2266 O   0  0  0  0  0  0  0  0  0  0  0  0
    3.2687   43.0492   26.2679 C   0  0  0  0  0  0  0  0  0  0  0  0
    2.4047   43.8141   27.1193 O   0  0  0  0  0  0  0  0  0  0  0  0
    8.8127   40.1848   34.2122 O   0  0  0  0  0  0  0  0  0  0  0  0
   11.2420   40.7941   33.3697 O   0  0  0  0  0  0  0  0  0  0  0  0
   10.9187   40.6911   31.9971 C   0  0  0  0  0  0  0  0  0  0  0  0
   11.5172   39.3815   31.4407 C   0  0  0  0  0  0  0  0  0  0  0  0
   12.7493   39.0856   32.0728 O   0  0  0  0  0  0  0  0  0  0  0  0
   10.6023   38.1908   31.6665 C   0  0  0  0  0  0  0  0  0  0  0  0
   12.9319   37.6781   32.0281 C   0  0  0  0  0  0  0  0  0  0  0  0
    9.6392   38.0798   30.6452 O   0  0  0  0  0  0  0  0  0  0  0  0
   11.5715   37.0166   31.7056 C   0  0  0  0  0  0  0  0  0  0  0  0
   13.4846   37.2121   33.3235 N   0  0  0  0  0  0  0  0  0  0  0  0
   11.6187   36.3384   30.4695 O   0  0  0  0  0  0  0  0  0  0  0  0
   14.4801   36.3321   33.5724 C   0  0  0  0  0  0  0  0  0  0  0  0
   13.1137   37.6275   34.5687 C   0  0  0  0  0  0  0  0  0  0  0  0
   15.2073   35.6153   32.6738 N   0  0  0  0  0  0  0  0  0  0  0  0
   14.6759   36.2308   34.9179 C   0  0  0  0  0  0  0  0  0  0  0  0
   13.8216   37.0452   35.5781 N   0  0  0  0  0  0  0  0  0  0  0  0
   16.1640   34.7602   33.1546 C   0  0  0  0  0  0  0  0  0  0  0  0
   15.6526   35.3508   35.4129 C   0  0  0  0  0  0  0  0  0  0  0  0
   16.3794   34.6317   34.5041 N   0  0  0  0  0  0  0  0  0  0  0  0
   15.8999   35.1935   36.8088 N   0  0  0  0  0  0  0  0  0  0  0  0
    9.0120   45.4317   33.6711 H   0  0  0  0  0  0  0  0  0  0  0  0
   11.8905   45.7659   32.9469 H   0  0  0  0  0  0  0  0  0  0  0  0
   10.7258   46.9688   33.1213 H   0  0  0  0  0  0  0  0  0  0  0  0
    9.3415   43.8333   31.4756 H   0  0  0  0  0  0  0  0  0  0  0  0
   10.7228   44.8823   31.1552 H   0  0  0  0  0  0  0  0  0  0  0  0
    7.0071   44.7171   31.5830 H   0  0  0  0  0  0  0  0  0  0  0  0
   10.3465   47.1882   30.4109 H   0  0  0  0  0  0  0  0  0  0  0  0
    5.4600   46.3102   30.5078 H   0  0  0  0  0  0  0  0  0  0  0  0
    8.7895   48.7736   29.3409 H   0  0  0  0  0  0  0  0  0  0  0  0
    6.5970   48.1730   27.2581 H   0  0  0  0  0  0  0  0  0  0  0  0
    4.2618   50.0191   28.0068 H   0  0  0  0  0  0  0  0  0  0  0  0
    5.8579   50.4469   27.3113 H   0  0  0  0  0  0  0  0  0  0  0  0
    4.6858   49.4940   26.3300 H   0  0  0  0  0  0  0  0  0  0  0  0
    6.0982   46.0630   26.4854 H   0  0  0  0  0  0  0  0  0  0  0  0
    1.6350   45.9772   28.7088 H   0  0  0  0  0  0  0  0  0  0  0  0
    2.7870   42.8846   25.2814 H   0  0  0  0  0  0  0  0  0  0  0  0
    3.5223   42.0815   26.7493 H   0  0  0  0  0  0  0  0  0  0  0  0
   11.3968   41.5460   31.4728 H   0  0  0  0  0  0  0  0  0  0  0  0
    9.8299   40.7410   31.7613 H   0  0  0  0  0  0  0  0  0  0  0  0
   11.6975   39.5067   30.3481 H   0  0  0  0  0  0  0  0  0  0  0  0
   10.1076   38.2648   32.6645 H   0  0  0  0  0  0  0  0  0  0  0  0
   13.6621   37.4467   31.2209 H   0  0  0  0  0  0  0  0  0  0  0  0
    8.8975   38.6945   30.8830 H   0  0  0  0  0  0  0  0  0  0  0  0
   11.2806   36.3073   32.5170 H   0  0  0  0  0  0  0  0  0  0  0  0
   10.8492   35.7111   30.4586 H   0  0  0  0  0  0  0  0  0  0  0  0
   12.3290   38.3524   34.7444 H   0  0  0  0  0  0  0  0  0  0  0  0
   16.7559   34.1780   32.4619 H   0  0  0  0  0  0  0  0  0  0  0  0
   15.3532   35.7362   37.5137 H   0  0  0  0  0  0  0  0  0  0  0  0
   16.6344   34.5301   37.1414 H   0  0  0  0  0  0  0  0  0  0  0  0
  1  2  2  0
  1  3  1  0
  3  4  1  0
  4  5  1  0
  6  1  1  0
  7  6  1  0
  6  8  1  0
  8  9  1  0
  9 10  2  0
 11  9  1  0
 10 12  1  0
 13 11  2  0
 12 14  2  0
 14 13  1  0
 14 15  1  0
 15 16  1  0
 16 17  1  0
 16 18  1  0
 18 19  2  0
 20 18  1  0
 19 21  1  0
 22 20  2  0
 20 23  1  0
 21 24  1  0
 21 25  2  0
 25 22  1  0
 23 26  1  0
 23 27  2  0
 24 28  1  0
 25 29  1  0
 28 29  1  0
  4 30  2  0
  4 31  1  0
 32 31  1  0
 32 33  1  0
 33 34  1  0
 33 35  1  0
 34 36  1  0
 35 37  1  0
 35 38  1  0
 38 36  1  0
 36 39  1  0
 38 40  1  0
 41 39  1  0
 42 39  1  0
 43 41  2  0
 41 44  1  0
 45 42  2  0
 46 43  1  0
 44 47  2  0
 44 45  1  0
 48 46  2  0
 48 47  1  0
 47 49  1  0
  6 50  1  1
  7 51  1  0
  7 52  1  0
  8 53  1  0
  8 54  1  0
 10 55  1  0
 11 56  1  0
 12 57  1  0
 13 58  1  0
 16 59  1  6
 17 60  1  0
 17 61  1  0
 17 62  1  0
 19 63  1  0
 22 64  1  0
 28 65  1  0
 28 66  1  0
 32 67  1  0
 32 68  1  0
 33 69  1  0
 35 70  1  0
 36 71  1  0
 37 72  1  0
 38 73  1  0
 40 74  1  0
 42 75  1  0
 46 76  1  0
 49 77  1  0
 49 78  1  0
M  CHG  3   5  -1  23   1  26  -1
M  END
>  <EmbedRMS>  (142) 
0.0830355370696

$$$$

     RDKit          3D

 78 83  0  0  0  0  0  0  0  0999 V2000
   10.2836   43.7661   33.8256 C   0  0  0  0  0  0  0  0  0  0  0  0
   11.4103   43.5930   34.3752 O   0  0  0  0  0  0  0  0  0  0  0  0
    9.3640   42.7253   33.7347 O   0  0  0  0  0  0  0  0  0  0  0  0
    9.8908   41.2265   34.2939 P   0  0  0  0  0  0  0  0  0  0  0  0
   10.3733   41.4559   35.8836 O   0  0  0  0  0  0  0  0  0  0  0  0
    9.9547   45.0694   33.2035 C   0  0  1  0  0  0  0  0  0  0  0  0
   11.0273   46.0321   33.4756 N   0  0  0  0  0  0  0  0  0  0  0  0
    9.7466   44.8480   31.6876 C   0  0  0  0  0  0  0  0  0  0  0  0
    8.7923   45.8407   31.0843 C   0  0  0  0  0  0  0  0  0  0  0  0
    7.4054   45.6017   31.0992 C   0  0  0  0  0  0  0  0  0  0  0  0
    9.2822   46.9878   30.4425 C   0  0  0  0  0  0  0  0  0  0  0  0
    6.5267   46.5035   30.4841 C   0  0  0  0  0  0  0  0  0  0  0  0
    8.4031   47.8901   29.8324 C   0  0  0  0  0  0  0  0  0  0  0  0
    7.0143   47.6525   29.8464 C   0  0  0  0  0  0  0  0  0  0  0  0
    6.0895   48.5201   29.2425 O   0  0  0  0  0  0  0  0  0  0  0  0
    6.4190   49.7043   28.5103 C   0  0  2  0  0  0  0  0  0  0  0  0
    5.1330   50.4736   28.2180 C   0  0  0  0  0  0  0  0  0  0  0  0
    7.1169   49.3635   27.2031 C   0  0  0  0  0  0  0  0  0  0  0  0
    6.6830   48.2265   26.4767 C   0  0  0  0  0  0  0  0  0  0  0  0
    8.1257   50.2112   26.6362 C   0  0  0  0  0  0  0  0  0  0  0  0
    7.2663   47.9632   25.2442 C   0  0  0  0  0  0  0  0  0  0  0  0
    8.6709   49.9021   25.3706 C   0  0  0  0  0  0  0  0  0  0  0  0
    8.5849   51.3923   27.3071 N   0  0  0  0  0  0  0  0  0  0  0  0
    7.0062   46.9203   24.3763 O   0  0  0  0  0  0  0  0  0  0  0  0
    8.2176   48.7658   24.7142 C   0  0  0  0  0  0  0  0  0  0  0  0
    8.7319   52.5596   26.5943 O   0  0  0  0  0  0  0  0  0  0  0  0
    9.1197   51.3031   28.4308 O   0  0  0  0  0  0  0  0  0  0  0  0
    7.8519   47.0784   23.2288 C   0  0  0  0  0  0  0  0  0  0  0  0
    8.6084   48.2695   23.4855 O   0  0  0  0  0  0  0  0  0  0  0  0
    8.8127   40.1847   34.2122 O   0  0  0  0  0  0  0  0  0  0  0  0
   11.2421   40.7941   33.3697 O   0  0  0  0  0  0  0  0  0  0  0  0
   10.9186   40.6910   31.9972 C   0  0  0  0  0  0  0  0  0  0  0  0
   11.5172   39.3814   31.4408 C   0  0  0  0  0  0  0  0  0  0  0  0
   12.7493   39.0856   32.0728 O   0  0  0  0  0  0  0  0  0  0  0  0
   10.6023   38.1908   31.6666 C   0  0  0  0  0  0  0  0  0  0  0  0
   12.9319   37.6782   32.0281 C   0  0  0  0  0  0  0  0  0  0  0  0
    9.6392   38.0798   30.6453 O   0  0  0  0  0  0  0  0  0  0  0  0
   11.5716   37.0165   31.7056 C   0  0  0  0  0  0  0  0  0  0  0  0
   13.4847   37.2122   33.3235 N   0  0  0  0  0  0  0  0  0  0  0  0
   11.6188   36.3384   30.4695 O   0  0  0  0  0  0  0  0  0  0  0  0
   14.4801   36.3321   33.5724 C   0  0  0  0  0  0  0  0  0  0  0  0
   13.1137   37.6276   34.5687 C   0  0  0  0  0  0  0  0  0  0  0  0
   15.2073   35.6153   32.6737 N   0  0  0  0  0  0  0  0  0  0  0  0
   14.6758   36.2308   34.9179 C   0  0  0  0  0  0  0  0  0  0  0  0
   13.8216   37.0452   35.5780 N   0  0  0  0  0  0  0  0  0  0  0  0
   16.1639   34.7601   33.1546 C   0  0  0  0  0  0  0  0  0  0  0  0
   15.6526   35.3508   35.4129 C   0  0  0  0  0  0  0  0  0  0  0  0
   16.3794   34.6317   34.5040 N   0  0  0  0  0  0  0  0  0  0  0  0
   15.9000   35.1934   36.8088 N   0  0  0  0  0  0  0  0  0  0  0  0
    9.0120   45.4315   33.6714 H   0  0  0  0  0  0  0  0  0  0  0  0
   10.7258   46.9687   33.1212 H   0  0  0  0  0  0  0  0  0  0  0  0
   11.8905   45.7658   32.9468 H   0  0  0  0  0  0  0  0  0  0  0  0
    9.3413   43.8329   31.4762 H   0  0  0  0  0  0  0  0  0  0  0  0
   10.7229   44.8812   31.1555 H   0  0  0  0  0  0  0  0  0  0  0  0
    7.0080   44.7169   31.5813 H   0  0  0  0  0  0  0  0  0  0  0  0
   10.3468   47.1850   30.4117 H   0  0  0  0  0  0  0  0  0  0  0  0
    5.4622   46.3068   30.5008 H   0  0  0  0  0  0  0  0  0  0  0  0
    8.8160   48.7638   29.3509 H   0  0  0  0  0  0  0  0  0  0  0  0
    7.0424   50.3495   29.1588 H   0  0  0  0  0  0  0  0  0  0  0  0
    5.3632   51.4134   27.6714 H   0  0  0  0  0  0  0  0  0  0  0  0
    4.6270   50.7358   29.1714 H   0  0  0  0  0  0  0  0  0  0  0  0
    4.4401   49.8573   27.6057 H   0  0  0  0  0  0  0  0  0  0  0  0
    5.9055   47.5744   26.8537 H   0  0  0  0  0  0  0  0  0  0  0  0
    9.4315   50.5259   24.9189 H   0  0  0  0  0  0  0  0  0  0  0  0
    8.5319   46.2064   23.1299 H   0  0  0  0  0  0  0  0  0  0  0  0
    7.2370   47.2047   22.3131 H   0  0  0  0  0  0  0  0  0  0  0  0
    9.8299   40.7409   31.7615 H   0  0  0  0  0  0  0  0  0  0  0  0
   11.3967   41.5460   31.4729 H   0  0  0  0  0  0  0  0  0  0  0  0
   11.6974   39.5067   30.3481 H   0  0  0  0  0  0  0  0  0  0  0  0
   10.1077   38.2646   32.6646 H   0  0  0  0  0  0  0  0  0  0  0  0
   13.6622   37.4468   31.2209 H   0  0  0  0  0  0  0  0  0  0  0  0
    8.8975   38.6945   30.8831 H   0  0  0  0  0  0  0  0  0  0  0  0
   11.2807   36.3072   32.5170 H   0  0  0  0  0  0  0  0  0  0  0  0
   10.8493   35.7111   30.4585 H   0  0  0  0  0  0  0  0  0  0  0  0
   12.3288   38.3522   34.7444 H   0  0  0  0  0  0  0  0  0  0  0  0
   16.7559   34.1779   32.4619 H   0  0  0  0  0  0  0  0  0  0  0  0
   15.3533   35.7362   37.5137 H   0  0  0  0  0  0  0  0  0  0  0  0
   16.6345   34.5301   37.1413 H   0  0  0  0  0  0  0  0  0  0  0  0
  1  2  2  0
  1  3  1  0
  3  4  1  0
  4  5  1  0
  6  1  1  0
  7  6  1  0
  6  8  1  0
  8  9  1  0
  9 10  2  0
 11  9  1  0
 10 12  1  0
 13 11  2  0
 12 14  2  0
 14 13  1  0
 14 15  1  0
 15 16  1  0
 16 17  1  0
 16 18  1  0
 18 19  2  0
 20 18  1  0
 19 21  1  0
 22 20  2  0
 20 23  1  0
 21 24  1  0
 21 25  2  0
 25 22  1  0
 23 26  1  0
 23 27  2  0
 24 28  1  0
 25 29  1  0
 28 29  1  0
  4 30  2  0
  4 31  1  0
 32 31  1  0
 32 33  1  0
 33 34  1  0
 33 35  1  0
 34 36  1  0
 35 37  1  0
 35 38  1  0
 38 36  1  0
 36 39  1  0
 38 40  1  0
 41 39  1  0
 42 39  1  0
 43 41  2  0
 41 44  1  0
 45 42  2  0
 46 43  1  0
 44 47  2  0
 44 45  1  0
 48 46  2  0
 48 47  1  0
 47 49  1  0
  6 50  1  1
  7 51  1  0
  7 52  1  0
  8 53  1  0
  8 54  1  0
 10 55  1  0
 11 56  1  0
 12 57  1  0
 13 58  1  0
 16 59  1  1
 17 60  1  0
 17 61  1  0
 17 62  1  0
 19 63  1  0
 22 64  1  0
 28 65  1  0
 28 66  1  0
 32 67  1  0
 32 68  1  0
 33 69  1  0
 35 70  1  0
 36 71  1  0
 37 72  1  0
 38 73  1  0
 40 74  1  0
 42 75  1  0
 46 76  1  0
 49 77  1  0
 49 78  1  0
M  CHG  3   5  -1  23   1  26  -1
M  END
>  <EmbedRMS>  (143) 
0.082948623723

$$$$

     RDKit          3D

 78 83  0  0  0  0  0  0  0  0999 V2000
   10.2841   43.7625   33.8276 C   0  0  0  0  0  0  0  0  0  0  0  0
   11.4105   43.5862   34.3767 O   0  0  0  0  0  0  0  0  0  0  0  0
    9.3634   42.7234   33.7351 O   0  0  0  0  0  0  0  0  0  0  0  0
    9.8899   41.2246   34.2940 P   0  0  0  0  0  0  0  0  0  0  0  0
   10.3723   41.4544   35.8837 O   0  0  0  0  0  0  0  0  0  0  0  0
    9.9550   45.0699   33.2067 C   0  0  1  0  0  0  0  0  0  0  0  0
   11.0199   46.0481   33.4574 N   0  0  0  0  0  0  0  0  0  0  0  0
    9.7505   44.8514   31.6926 C   0  0  0  0  0  0  0  0  0  0  0  0
    8.7944   45.8426   31.0883 C   0  0  0  0  0  0  0  0  0  0  0  0
    7.4082   45.6003   31.0995 C   0  0  0  0  0  0  0  0  0  0  0  0
    9.2825   46.9887   30.4443 C   0  0  0  0  0  0  0  0  0  0  0  0
    6.5265   46.4989   30.4835 C   0  0  0  0  0  0  0  0  0  0  0  0
    8.4007   47.8863   29.8313 C   0  0  0  0  0  0  0  0  0  0  0  0
    7.0181   47.6581   29.8482 C   0  0  0  0  0  0  0  0  0  0  0  0
    6.1873   48.5985   29.2075 O   0  0  0  0  0  0  0  0  0  0  0  0
    4.7614   48.7355   29.3295 C   0  0  2  0  0  0  0  0  0  0  0  0
    4.3555   48.8436   30.8137 C   0  0  0  0  0  0  0  0  0  0  0  0
    3.9826   47.6660   28.5585 C   0  0  0  0  0  0  0  0  0  0  0  0
    4.6770   46.6800   27.8068 C   0  0  0  0  0  0  0  0  0  0  0  0
    2.5449   47.6396   28.5597 C   0  0  0  0  0  0  0  0  0  0  0  0
    3.9478   45.6777   27.1818 C   0  0  0  0  0  0  0  0  0  0  0  0
    1.8581   46.5832   27.9191 C   0  0  0  0  0  0  0  0  0  0  0  0
    1.7726   48.6884   29.1618 N   0  0  0  0  0  0  0  0  0  0  0  0
    4.4166   44.6175   26.4297 O   0  0  0  0  0  0  0  0  0  0  0  0
    2.5991   45.6251   27.2442 C   0  0  0  0  0  0  0  0  0  0  0  0
    2.0230   50.0005   28.8336 O   0  0  0  0  0  0  0  0  0  0  0  0
    0.7293   48.4126   29.7894 O   0  0  0  0  0  0  0  0  0  0  0  0
    3.2863   43.8491   25.9956 C   0  0  0  0  0  0  0  0  0  0  0  0
    2.1453   44.5285   26.5368 O   0  0  0  0  0  0  0  0  0  0  0  0
    8.8118   40.1831   34.2120 O   0  0  0  0  0  0  0  0  0  0  0  0
   11.2416   40.7932   33.3699 O   0  0  0  0  0  0  0  0  0  0  0  0
   10.9186   40.6909   31.9972 C   0  0  0  0  0  0  0  0  0  0  0  0
   11.5172   39.3814   31.4407 C   0  0  0  0  0  0  0  0  0  0  0  0
   12.7493   39.0855   32.0727 O   0  0  0  0  0  0  0  0  0  0  0  0
   10.6023   38.1907   31.6665 C   0  0  0  0  0  0  0  0  0  0  0  0
   12.9319   37.6781   32.0281 C   0  0  0  0  0  0  0  0  0  0  0  0
    9.6392   38.0797   30.6452 O   0  0  0  0  0  0  0  0  0  0  0  0
   11.5715   37.0165   31.7056 C   0  0  0  0  0  0  0  0  0  0  0  0
   13.4846   37.2121   33.3235 N   0  0  0  0  0  0  0  0  0  0  0  0
   11.6187   36.3383   30.4694 O   0  0  0  0  0  0  0  0  0  0  0  0
   14.4801   36.3321   33.5724 C   0  0  0  0  0  0  0  0  0  0  0  0
   13.1137   37.6275   34.5687 C   0  0  0  0  0  0  0  0  0  0  0  0
   15.2073   35.6153   32.6738 N   0  0  0  0  0  0  0  0  0  0  0  0
   14.6759   36.2308   34.9179 C   0  0  0  0  0  0  0  0  0  0  0  0
   13.8216   37.0452   35.5781 N   0  0  0  0  0  0  0  0  0  0  0  0
   16.1640   34.7602   33.1546 C   0  0  0  0  0  0  0  0  0  0  0  0
   15.6526   35.3508   35.4129 C   0  0  0  0  0  0  0  0  0  0  0  0
   16.3794   34.6317   34.5041 N   0  0  0  0  0  0  0  0  0  0  0  0
   15.8999   35.1935   36.8088 N   0  0  0  0  0  0  0  0  0  0  0  0
    9.0100   45.4346   33.6675 H   0  0  0  0  0  0  0  0  0  0  0  0
   11.9350   45.6933   33.0930 H   0  0  0  0  0  0  0  0  0  0  0  0
   11.1134   46.1991   34.4887 H   0  0  0  0  0  0  0  0  0  0  0  0
    9.3517   43.8348   31.4759 H   0  0  0  0  0  0  0  0  0  0  0  0
   10.7308   44.8935   31.1678 H   0  0  0  0  0  0  0  0  0  0  0  0
    7.0138   44.7099   31.5737 H   0  0  0  0  0  0  0  0  0  0  0  0
   10.3466   47.1884   30.4133 H   0  0  0  0  0  0  0  0  0  0  0  0
    5.4747   46.2602   30.4826 H   0  0  0  0  0  0  0  0  0  0  0  0
    8.7945   48.7668   29.3395 H   0  0  0  0  0  0  0  0  0  0  0  0
    4.5182   49.7088   28.8552 H   0  0  0  0  0  0  0  0  0  0  0  0
    5.1853   49.2805   31.4090 H   0  0  0  0  0  0  0  0  0  0  0  0
    4.0882   47.8566   31.2423 H   0  0  0  0  0  0  0  0  0  0  0  0
    3.4832   49.5161   30.9375 H   0  0  0  0  0  0  0  0  0  0  0  0
    5.7521   46.6771   27.7049 H   0  0  0  0  0  0  0  0  0  0  0  0
    0.7768   46.5341   27.9159 H   0  0  0  0  0  0  0  0  0  0  0  0
    3.2340   43.8358   24.8867 H   0  0  0  0  0  0  0  0  0  0  0  0
    3.3453   42.8170   26.4001 H   0  0  0  0  0  0  0  0  0  0  0  0
   11.3972   41.5459   31.4735 H   0  0  0  0  0  0  0  0  0  0  0  0
    9.8300   40.7411   31.7610 H   0  0  0  0  0  0  0  0  0  0  0  0
   11.6974   39.5067   30.3480 H   0  0  0  0  0  0  0  0  0  0  0  0
   10.1076   38.2647   32.6645 H   0  0  0  0  0  0  0  0  0  0  0  0
   13.6621   37.4467   31.2208 H   0  0  0  0  0  0  0  0  0  0  0  0
    8.8976   38.6945   30.8829 H   0  0  0  0  0  0  0  0  0  0  0  0
   11.2806   36.3073   32.5170 H   0  0  0  0  0  0  0  0  0  0  0  0
   10.8492   35.7110   30.4585 H   0  0  0  0  0  0  0  0  0  0  0  0
   12.3290   38.3523   34.7444 H   0  0  0  0  0  0  0  0  0  0  0  0
   16.7559   34.1780   32.4619 H   0  0  0  0  0  0  0  0  0  0  0  0
   15.3532   35.7362   37.5137 H   0  0  0  0  0  0  0  0  0  0  0  0
   16.6344   34.5301   37.1414 H   0  0  0  0  0  0  0  0  0  0  0  0
  1  2  2  0
  1  3  1  0
  3  4  1  0
  4  5  1  0
  6  1  1  0
  7  6  1  0
  6  8  1  0
  8  9  1  0
  9 10  2  0
 11  9  1  0
 10 12  1  0
 13 11  2  0
 12 14  2  0
 14 13  1  0
 14 15  1  0
 15 16  1  0
 16 17  1  0
 16 18  1  0
 18 19  2  0
 20 18  1  0
 19 21  1  0
 22 20  2  0
 20 23  1  0
 21 24  1  0
 21 25  2  0
 25 22  1  0
 23 26  1  0
 23 27  2  0
 24 28  1  0
 25 29  1  0
 28 29  1  0
  4 30  2  0
  4 31  1  0
 32 31  1  0
 32 33  1  0
 33 34  1  0
 33 35  1  0
 34 36  1  0
 35 37  1  0
 35 38  1  0
 38 36  1  0
 36 39  1  0
 38 40  1  0
 41 39  1  0
 42 39  1  0
 43 41  2  0
 41 44  1  0
 45 42  2  0
 46 43  1  0
 44 47  2  0
 44 45  1  0
 48 46  2  0
 48 47  1  0
 47 49  1  0
  6 50  1  1
  7 51  1  0
  7 52  1  0
  8 53  1  0
  8 54  1  0
 10 55  1  0
 11 56  1  0
 12 57  1  0
 13 58  1  0
 16 59  1  6
 17 60  1  0
 17 61  1  0
 17 62  1  0
 19 63  1  0
 22 64  1  0
 28 65  1  0
 28 66  1  0
 32 67  1  0
 32 68  1  0
 33 69  1  0
 35 70  1  0
 36 71  1  0
 37 72  1  0
 38 73  1  0
 40 74  1  0
 42 75  1  0
 46 76  1  0
 49 77  1  0
 49 78  1  0
M  CHG  3   5  -1  23   1  26  -1
M  END
>  <EmbedRMS>  (144) 
0.083794822408

$$$$

     RDKit          3D

 78 83  0  0  0  0  0  0  0  0999 V2000
   10.2839   43.7627   33.8276 C   0  0  0  0  0  0  0  0  0  0  0  0
   11.4103   43.5863   34.3767 O   0  0  0  0  0  0  0  0  0  0  0  0
    9.3631   42.7236   33.7353 O   0  0  0  0  0  0  0  0  0  0  0  0
    9.8898   41.2248   34.2935 P   0  0  0  0  0  0  0  0  0  0  0  0
   10.3734   41.4543   35.8829 O   0  0  0  0  0  0  0  0  0  0  0  0
    9.9549   45.0700   33.2064 C   0  0  1  0  0  0  0  0  0  0  0  0
   11.0198   46.0482   33.4571 N   0  0  0  0  0  0  0  0  0  0  0  0
    9.7507   44.8511   31.6922 C   0  0  0  0  0  0  0  0  0  0  0  0
    8.7946   45.8418   31.0867 C   0  0  0  0  0  0  0  0  0  0  0  0
    7.4080   45.6007   31.1004 C   0  0  0  0  0  0  0  0  0  0  0  0
    9.2826   46.9892   30.4449 C   0  0  0  0  0  0  0  0  0  0  0  0
    6.5255   46.4999   30.4858 C   0  0  0  0  0  0  0  0  0  0  0  0
    8.4008   47.8881   29.8339 C   0  0  0  0  0  0  0  0  0  0  0  0
    7.0190   47.6553   29.8443 C   0  0  0  0  0  0  0  0  0  0  0  0
    6.1873   48.5983   29.2172 O   0  0  0  0  0  0  0  0  0  0  0  0
    4.7676   48.5036   29.0660 C   0  0  2  0  0  0  0  0  0  0  0  0
    4.4471   47.5054   27.9422 C   0  0  0  0  0  0  0  0  0  0  0  0
    4.2129   49.9115   28.8526 C   0  0  0  0  0  0  0  0  0  0  0  0
    3.4534   50.2429   27.6952 C   0  0  0  0  0  0  0  0  0  0  0  0
    4.4900   50.9478   29.8132 C   0  0  0  0  0  0  0  0  0  0  0  0
    3.0252   51.5530   27.5289 C   0  0  0  0  0  0  0  0  0  0  0  0
    4.0386   52.2659   29.5770 C   0  0  0  0  0  0  0  0  0  0  0  0
    5.2416   50.6930   31.0129 N   0  0  0  0  0  0  0  0  0  0  0  0
    2.2878   52.0885   26.4901 O   0  0  0  0  0  0  0  0  0  0  0  0
    3.3076   52.5215   28.4273 C   0  0  0  0  0  0  0  0  0  0  0  0
    6.0839   51.6612   31.5093 O   0  0  0  0  0  0  0  0  0  0  0  0
    4.9917   49.6961   31.7203 O   0  0  0  0  0  0  0  0  0  0  0  0
    2.0958   53.4842   26.7570 C   0  0  0  0  0  0  0  0  0  0  0  0
    2.7634   53.7189   28.0041 O   0  0  0  0  0  0  0  0  0  0  0  0
    8.8114   40.1834   34.2126 O   0  0  0  0  0  0  0  0  0  0  0  0
   11.2402   40.7936   33.3673 O   0  0  0  0  0  0  0  0  0  0  0  0
   10.9134   40.6864   31.9955 C   0  0  0  0  0  0  0  0  0  0  0  0
   11.5166   39.3786   31.4404 C   0  0  0  0  0  0  0  0  0  0  0  0
   12.7486   39.0849   32.0734 O   0  0  0  0  0  0  0  0  0  0  0  0
   10.6039   38.1883   31.6669 C   0  0  0  0  0  0  0  0  0  0  0  0
   12.9329   37.6775   32.0284 C   0  0  0  0  0  0  0  0  0  0  0  0
    9.6374   38.0938   30.6484 O   0  0  0  0  0  0  0  0  0  0  0  0
   11.5737   37.0140   31.7055 C   0  0  0  0  0  0  0  0  0  0  0  0
   13.4853   37.2120   33.3238 N   0  0  0  0  0  0  0  0  0  0  0  0
   11.6210   36.3379   30.4683 O   0  0  0  0  0  0  0  0  0  0  0  0
   14.4804   36.3319   33.5726 C   0  0  0  0  0  0  0  0  0  0  0  0
   13.1141   37.6275   34.5689 C   0  0  0  0  0  0  0  0  0  0  0  0
   15.2075   35.6152   32.6740 N   0  0  0  0  0  0  0  0  0  0  0  0
   14.6761   36.2306   34.9181 C   0  0  0  0  0  0  0  0  0  0  0  0
   13.8218   37.0451   35.5783 N   0  0  0  0  0  0  0  0  0  0  0  0
   16.1642   34.7600   33.1548 C   0  0  0  0  0  0  0  0  0  0  0  0
   15.6527   35.3506   35.4131 C   0  0  0  0  0  0  0  0  0  0  0  0
   16.3795   34.6315   34.5042 N   0  0  0  0  0  0  0  0  0  0  0  0
   15.9000   35.1933   36.8090 N   0  0  0  0  0  0  0  0  0  0  0  0
    9.0099   45.4349   33.6669 H   0  0  0  0  0  0  0  0  0  0  0  0
   11.9350   45.6934   33.0930 H   0  0  0  0  0  0  0  0  0  0  0  0
   11.1131   46.1993   34.4885 H   0  0  0  0  0  0  0  0  0  0  0  0
    9.3521   43.8344   31.4758 H   0  0  0  0  0  0  0  0  0  0  0  0
   10.7311   44.8932   31.1676 H   0  0  0  0  0  0  0  0  0  0  0  0
    7.0132   44.7154   31.5838 H   0  0  0  0  0  0  0  0  0  0  0  0
   10.3465   47.1899   30.4159 H   0  0  0  0  0  0  0  0  0  0  0  0
    5.4686   46.2806   30.5205 H   0  0  0  0  0  0  0  0  0  0  0  0
    8.7939   48.7711   29.3462 H   0  0  0  0  0  0  0  0  0  0  0  0
    4.3030   48.1138   29.9945 H   0  0  0  0  0  0  0  0  0  0  0  0
    3.3487   47.3747   27.8409 H   0  0  0  0  0  0  0  0  0  0  0  0
    4.8808   46.5110   28.1727 H   0  0  0  0  0  0  0  0  0  0  0  0
    4.8811   47.8503   26.9795 H   0  0  0  0  0  0  0  0  0  0  0  0
    3.2008   49.5232   26.9310 H   0  0  0  0  0  0  0  0  0  0  0  0
    4.2385   53.0646   30.2796 H   0  0  0  0  0  0  0  0  0  0  0  0
    2.5577   54.0960   25.9539 H   0  0  0  0  0  0  0  0  0  0  0  0
    1.0134   53.7116   26.8530 H   0  0  0  0  0  0  0  0  0  0  0  0
    9.8226   40.7225   31.7629 H   0  0  0  0  0  0  0  0  0  0  0  0
   11.3831   41.5438   31.4675 H   0  0  0  0  0  0  0  0  0  0  0  0
   11.6978   39.5037   30.3478 H   0  0  0  0  0  0  0  0  0  0  0  0
   10.1084   38.2785   32.6626 H   0  0  0  0  0  0  0  0  0  0  0  0
   13.6638   37.4471   31.2214 H   0  0  0  0  0  0  0  0  0  0  0  0
    8.9763   37.4190   30.9532 H   0  0  0  0  0  0  0  0  0  0  0  0
   11.2821   36.3053   32.5171 H   0  0  0  0  0  0  0  0  0  0  0  0
   10.8658   35.6935   30.4652 H   0  0  0  0  0  0  0  0  0  0  0  0
   12.3293   38.3523   34.7445 H   0  0  0  0  0  0  0  0  0  0  0  0
   16.7561   34.1778   32.4621 H   0  0  0  0  0  0  0  0  0  0  0  0
   16.6345   34.5300   37.1416 H   0  0  0  0  0  0  0  0  0  0  0  0
   15.3533   35.7361   37.5138 H   0  0  0  0  0  0  0  0  0  0  0  0
  1  2  2  0
  1  3  1  0
  3  4  1  0
  4  5  1  0
  6  1  1  0
  7  6  1  0
  6  8  1  0
  8  9  1  0
  9 10  2  0
 11  9  1  0
 10 12  1  0
 13 11  2  0
 12 14  2  0
 14 13  1  0
 14 15  1  0
 15 16  1  0
 16 17  1  0
 16 18  1  0
 18 19  2  0
 20 18  1  0
 19 21  1  0
 22 20  2  0
 20 23  1  0
 21 24  1  0
 21 25  2  0
 25 22  1  0
 23 26  1  0
 23 27  2  0
 24 28  1  0
 25 29  1  0
 28 29  1  0
  4 30  2  0
  4 31  1  0
 32 31  1  0
 32 33  1  0
 33 34  1  0
 33 35  1  0
 34 36  1  0
 35 37  1  0
 35 38  1  0
 38 36  1  0
 36 39  1  0
 38 40  1  0
 41 39  1  0
 42 39  1  0
 43 41  2  0
 41 44  1  0
 45 42  2  0
 46 43  1  0
 44 47  2  0
 44 45  1  0
 48 46  2  0
 48 47  1  0
 47 49  1  0
  6 50  1  1
  7 51  1  0
  7 52  1  0
  8 53  1  0
  8 54  1  0
 10 55  1  0
 11 56  1  0
 12 57  1  0
 13 58  1  0
 16 59  1  1
 17 60  1  0
 17 61  1  0
 17 62  1  0
 19 63  1  0
 22 64  1  0
 28 65  1  0
 28 66  1  0
 32 67  1  0
 32 68  1  0
 33 69  1  0
 35 70  1  0
 36 71  1  0
 37 72  1  0
 38 73  1  0
 40 74  1  0
 42 75  1  0
 46 76  1  0
 49 77  1  0
 49 78  1  0
M  CHG  3   5  -1  23   1  26  -1
M  END
>  <EmbedRMS>  (145) 
0.0834374861159

$$$$

     RDKit          3D

 78 83  0  0  0  0  0  0  0  0999 V2000
   10.2833   43.7664   33.8257 C   0  0  0  0  0  0  0  0  0  0  0  0
   11.4099   43.5934   34.3756 O   0  0  0  0  0  0  0  0  0  0  0  0
    9.3638   42.7255   33.7348 O   0  0  0  0  0  0  0  0  0  0  0  0
    9.8903   41.2268   34.2942 P   0  0  0  0  0  0  0  0  0  0  0  0
   10.3736   41.4563   35.8836 O   0  0  0  0  0  0  0  0  0  0  0  0
    9.9543   45.0698   33.2037 C   0  0  1  0  0  0  0  0  0  0  0  0
   11.0269   46.0326   33.4758 N   0  0  0  0  0  0  0  0  0  0  0  0
    9.7463   44.8488   31.6878 C   0  0  0  0  0  0  0  0  0  0  0  0
    8.7919   45.8416   31.0847 C   0  0  0  0  0  0  0  0  0  0  0  0
    7.4042   45.6005   31.0982 C   0  0  0  0  0  0  0  0  0  0  0  0
    9.2825   46.9884   30.4397 C   0  0  0  0  0  0  0  0  0  0  0  0
    6.5252   46.5007   30.4810 C   0  0  0  0  0  0  0  0  0  0  0  0
    8.4014   47.8885   29.8284 C   0  0  0  0  0  0  0  0  0  0  0  0
    7.0205   47.6544   29.8562 C   0  0  0  0  0  0  0  0  0  0  0  0
    6.1424   48.5569   29.2488 O   0  0  0  0  0  0  0  0  0  0  0  0
    5.5089   49.6334   29.9480 C   0  0  2  0  0  0  0  0  0  0  0  0
    6.5253   50.7212   30.3250 C   0  0  0  0  0  0  0  0  0  0  0  0
    4.6899   49.1214   31.1293 C   0  0  0  0  0  0  0  0  0  0  0  0
    5.3132   48.9195   32.3889 C   0  0  0  0  0  0  0  0  0  0  0  0
    3.2919   48.8221   30.9911 C   0  0  0  0  0  0  0  0  0  0  0  0
    4.5349   48.4931   33.4562 C   0  0  0  0  0  0  0  0  0  0  0  0
    2.5473   48.4128   32.1203 C   0  0  0  0  0  0  0  0  0  0  0  0
    2.6245   48.8934   29.7207 N   0  0  0  0  0  0  0  0  0  0  0  0
    4.9265   48.2417   34.7572 O   0  0  0  0  0  0  0  0  0  0  0  0
    3.2095   48.2583   33.3299 C   0  0  0  0  0  0  0  0  0  0  0  0
    1.3054   49.2797   29.6621 O   0  0  0  0  0  0  0  0  0  0  0  0
    3.1497   48.3910   28.7058 O   0  0  0  0  0  0  0  0  0  0  0  0
    3.7696   47.8235   35.4943 C   0  0  0  0  0  0  0  0  0  0  0  0
    2.6950   47.8479   34.5448 O   0  0  0  0  0  0  0  0  0  0  0  0
    8.8122   40.1851   34.2131 O   0  0  0  0  0  0  0  0  0  0  0  0
   11.2407   40.7940   33.3693 O   0  0  0  0  0  0  0  0  0  0  0  0
   10.9151   40.6905   31.9973 C   0  0  0  0  0  0  0  0  0  0  0  0
   11.5252   39.3886   31.4376 C   0  0  0  0  0  0  0  0  0  0  0  0
   12.7500   39.0874   32.0798 O   0  0  0  0  0  0  0  0  0  0  0  0
   10.6092   38.1925   31.6470 C   0  0  0  0  0  0  0  0  0  0  0  0
   12.9332   37.6793   32.0294 C   0  0  0  0  0  0  0  0  0  0  0  0
    9.6121   38.0893   30.6543 O   0  0  0  0  0  0  0  0  0  0  0  0
   11.5743   37.0144   31.7024 C   0  0  0  0  0  0  0  0  0  0  0  0
   13.4845   37.2108   33.3241 N   0  0  0  0  0  0  0  0  0  0  0  0
   11.6296   36.3238   30.4741 O   0  0  0  0  0  0  0  0  0  0  0  0
   14.4802   36.3313   33.5727 C   0  0  0  0  0  0  0  0  0  0  0  0
   13.1138   37.6266   34.5692 C   0  0  0  0  0  0  0  0  0  0  0  0
   15.2076   35.6150   32.6739 N   0  0  0  0  0  0  0  0  0  0  0  0
   14.6761   36.2302   34.9182 C   0  0  0  0  0  0  0  0  0  0  0  0
   13.8219   37.0446   35.5785 N   0  0  0  0  0  0  0  0  0  0  0  0
   16.1644   34.7601   33.1546 C   0  0  0  0  0  0  0  0  0  0  0  0
   15.6529   35.3504   35.4130 C   0  0  0  0  0  0  0  0  0  0  0  0
   16.3798   34.6315   34.5041 N   0  0  0  0  0  0  0  0  0  0  0  0
   15.9003   35.1930   36.8089 N   0  0  0  0  0  0  0  0  0  0  0  0
    9.0117   45.4320   33.6716 H   0  0  0  0  0  0  0  0  0  0  0  0
   10.7252   46.9691   33.1216 H   0  0  0  0  0  0  0  0  0  0  0  0
   11.8900   45.7664   32.9469 H   0  0  0  0  0  0  0  0  0  0  0  0
    9.3415   43.8336   31.4761 H   0  0  0  0  0  0  0  0  0  0  0  0
   10.7226   44.8825   31.1558 H   0  0  0  0  0  0  0  0  0  0  0  0
    7.0072   44.7151   31.5792 H   0  0  0  0  0  0  0  0  0  0  0  0
   10.3469   47.1852   30.4061 H   0  0  0  0  0  0  0  0  0  0  0  0
    5.4604   46.3054   30.4940 H   0  0  0  0  0  0  0  0  0  0  0  0
    8.7914   48.7691   29.3342 H   0  0  0  0  0  0  0  0  0  0  0  0
    4.8238   50.1331   29.2322 H   0  0  0  0  0  0  0  0  0  0  0  0
    6.0234   51.5337   30.8926 H   0  0  0  0  0  0  0  0  0  0  0  0
    6.9620   51.1568   29.4012 H   0  0  0  0  0  0  0  0  0  0  0  0
    7.3586   50.3146   30.9325 H   0  0  0  0  0  0  0  0  0  0  0  0
    6.3706   49.0817   32.5413 H   0  0  0  0  0  0  0  0  0  0  0  0
    1.4914   48.1859   32.0478 H   0  0  0  0  0  0  0  0  0  0  0  0
    3.5650   48.5332   36.3231 H   0  0  0  0  0  0  0  0  0  0  0  0
    3.9138   46.7938   35.8834 H   0  0  0  0  0  0  0  0  0  0  0  0
    9.8241   40.7215   31.7643 H   0  0  0  0  0  0  0  0  0  0  0  0
   11.3801   41.5529   31.4731 H   0  0  0  0  0  0  0  0  0  0  0  0
   11.7264   39.5310   30.3514 H   0  0  0  0  0  0  0  0  0  0  0  0
   10.1110   38.2745   32.6388 H   0  0  0  0  0  0  0  0  0  0  0  0
   13.6651   37.4519   31.2225 H   0  0  0  0  0  0  0  0  0  0  0  0
   10.0510   38.1143   29.7645 H   0  0  0  0  0  0  0  0  0  0  0  0
   11.2762   36.3141   32.5190 H   0  0  0  0  0  0  0  0  0  0  0  0
   10.8591   35.6978   30.4641 H   0  0  0  0  0  0  0  0  0  0  0  0
   12.3293   38.3516   34.7449 H   0  0  0  0  0  0  0  0  0  0  0  0
   16.7567   34.1783   32.4619 H   0  0  0  0  0  0  0  0  0  0  0  0
   16.6351   34.5298   37.1413 H   0  0  0  0  0  0  0  0  0  0  0  0
   15.3537   35.7357   37.5139 H   0  0  0  0  0  0  0  0  0  0  0  0
  1  2  2  0
  1  3  1  0
  3  4  1  0
  4  5  1  0
  6  1  1  0
  7  6  1  0
  6  8  1  0
  8  9  1  0
  9 10  2  0
 11  9  1  0
 10 12  1  0
 13 11  2  0
 12 14  2  0
 14 13  1  0
 14 15  1  0
 15 16  1  0
 16 17  1  0
 16 18  1  0
 18 19  2  0
 20 18  1  0
 19 21  1  0
 22 20  2  0
 20 23  1  0
 21 24  1  0
 21 25  2  0
 25 22  1  0
 23 26  1  0
 23 27  2  0
 24 28  1  0
 25 29  1  0
 28 29  1  0
  4 30  2  0
  4 31  1  0
 32 31  1  0
 32 33  1  0
 33 34  1  0
 33 35  1  0
 34 36  1  0
 35 37  1  0
 35 38  1  0
 38 36  1  0
 36 39  1  0
 38 40  1  0
 41 39  1  0
 42 39  1  0
 43 41  2  0
 41 44  1  0
 45 42  2  0
 46 43  1  0
 44 47  2  0
 44 45  1  0
 48 46  2  0
 48 47  1  0
 47 49  1  0
  6 50  1  1
  7 51  1  0
  7 52  1  0
  8 53  1  0
  8 54  1  0
 10 55  1  0
 11 56  1  0
 12 57  1  0
 13 58  1  0
 16 59  1  6
 17 60  1  0
 17 61  1  0
 17 62  1  0
 19 63  1  0
 22 64  1  0
 28 65  1  0
 28 66  1  0
 32 67  1  0
 32 68  1  0
 33 69  1  0
 35 70  1  0
 36 71  1  0
 37 72  1  0
 38 73  1  0
 40 74  1  0
 42 75  1  0
 46 76  1  0
 49 77  1  0
 49 78  1  0
M  CHG  3   5  -1  23   1  26  -1
M  END
>  <EmbedRMS>  (146) 
0.081909920643

$$$$

     RDKit          3D

 78 83  0  0  0  0  0  0  0  0999 V2000
   10.2838   43.7626   33.8275 C   0  0  0  0  0  0  0  0  0  0  0  0
   11.4103   43.5863   34.3766 O   0  0  0  0  0  0  0  0  0  0  0  0
    9.3631   42.7236   33.7352 O   0  0  0  0  0  0  0  0  0  0  0  0
    9.8898   41.2248   34.2935 P   0  0  0  0  0  0  0  0  0  0  0  0
   10.3734   41.4543   35.8829 O   0  0  0  0  0  0  0  0  0  0  0  0
    9.9549   45.0700   33.2063 C   0  0  1  0  0  0  0  0  0  0  0  0
   11.0198   46.0481   33.4571 N   0  0  0  0  0  0  0  0  0  0  0  0
    9.7507   44.8510   31.6922 C   0  0  0  0  0  0  0  0  0  0  0  0
    8.7945   45.8417   31.0866 C   0  0  0  0  0  0  0  0  0  0  0  0
    7.4078   45.6007   31.1005 C   0  0  0  0  0  0  0  0  0  0  0  0
    9.2827   46.9892   30.4448 C   0  0  0  0  0  0  0  0  0  0  0  0
    6.5253   46.5002   30.4860 C   0  0  0  0  0  0  0  0  0  0  0  0
    8.4009   47.8883   29.8341 C   0  0  0  0  0  0  0  0  0  0  0  0
    7.0192   47.6551   29.8442 C   0  0  0  0  0  0  0  0  0  0  0  0
    6.1876   48.5965   29.2157 O   0  0  0  0  0  0  0  0  0  0  0  0
    4.7764   48.4771   29.0183 C   0  0  2  0  0  0  0  0  0  0  0  0
    4.4527   47.4461   27.9302 C   0  0  0  0  0  0  0  0  0  0  0  0
    4.1677   49.8233   28.6624 C   0  0  0  0  0  0  0  0  0  0  0  0
    2.8441   50.0739   29.1014 C   0  0  0  0  0  0  0  0  0  0  0  0
    4.8698   50.8513   27.9394 C   0  0  0  0  0  0  0  0  0  0  0  0
    2.2798   51.3161   28.8455 C   0  0  0  0  0  0  0  0  0  0  0  0
    4.2473   52.1020   27.7253 C   0  0  0  0  0  0  0  0  0  0  0  0
    6.1960   50.6588   27.4233 N   0  0  0  0  0  0  0  0  0  0  0  0
    1.0214   51.7743   29.1854 O   0  0  0  0  0  0  0  0  0  0  0  0
    2.9532   52.2886   28.1908 C   0  0  0  0  0  0  0  0  0  0  0  0
    7.1015   51.6935   27.4702 O   0  0  0  0  0  0  0  0  0  0  0  0
    6.4620   49.6595   26.7255 O   0  0  0  0  0  0  0  0  0  0  0  0
    0.8988   53.1224   28.7120 C   0  0  0  0  0  0  0  0  0  0  0  0
    2.1548   53.4112   28.0829 O   0  0  0  0  0  0  0  0  0  0  0  0
    8.8115   40.1834   34.2125 O   0  0  0  0  0  0  0  0  0  0  0  0
   11.2402   40.7936   33.3673 O   0  0  0  0  0  0  0  0  0  0  0  0
   10.9134   40.6864   31.9955 C   0  0  0  0  0  0  0  0  0  0  0  0
   11.5166   39.3786   31.4404 C   0  0  0  0  0  0  0  0  0  0  0  0
   12.7486   39.0848   32.0734 O   0  0  0  0  0  0  0  0  0  0  0  0
   10.6039   38.1883   31.6669 C   0  0  0  0  0  0  0  0  0  0  0  0
   12.9329   37.6775   32.0284 C   0  0  0  0  0  0  0  0  0  0  0  0
    9.6373   38.0938   30.6484 O   0  0  0  0  0  0  0  0  0  0  0  0
   11.5737   37.0140   31.7055 C   0  0  0  0  0  0  0  0  0  0  0  0
   13.4853   37.2120   33.3238 N   0  0  0  0  0  0  0  0  0  0  0  0
   11.6210   36.3379   30.4683 O   0  0  0  0  0  0  0  0  0  0  0  0
   14.4804   36.3319   33.5726 C   0  0  0  0  0  0  0  0  0  0  0  0
   13.1141   37.6275   34.5689 C   0  0  0  0  0  0  0  0  0  0  0  0
   15.2076   35.6152   32.6740 N   0  0  0  0  0  0  0  0  0  0  0  0
   14.6761   36.2306   34.9181 C   0  0  0  0  0  0  0  0  0  0  0  0
   13.8218   37.0451   35.5783 N   0  0  0  0  0  0  0  0  0  0  0  0
   16.1642   34.7600   33.1548 C   0  0  0  0  0  0  0  0  0  0  0  0
   15.6527   35.3507   35.4131 C   0  0  0  0  0  0  0  0  0  0  0  0
   16.3795   34.6315   34.5043 N   0  0  0  0  0  0  0  0  0  0  0  0
   15.9001   35.1933   36.8090 N   0  0  0  0  0  0  0  0  0  0  0  0
    9.0098   45.4348   33.6668 H   0  0  0  0  0  0  0  0  0  0  0  0
   11.1131   46.1992   34.4884 H   0  0  0  0  0  0  0  0  0  0  0  0
   11.9349   45.6934   33.0929 H   0  0  0  0  0  0  0  0  0  0  0  0
   10.7311   44.8930   31.1675 H   0  0  0  0  0  0  0  0  0  0  0  0
    9.3519   43.8344   31.4758 H   0  0  0  0  0  0  0  0  0  0  0  0
    7.0129   44.7158   31.5845 H   0  0  0  0  0  0  0  0  0  0  0  0
   10.3466   47.1897   30.4155 H   0  0  0  0  0  0  0  0  0  0  0  0
    5.4678   46.2837   30.5225 H   0  0  0  0  0  0  0  0  0  0  0  0
    8.7938   48.7708   29.3451 H   0  0  0  0  0  0  0  0  0  0  0  0
    4.3179   48.1393   29.9735 H   0  0  0  0  0  0  0  0  0  0  0  0
    4.8321   47.7722   26.9413 H   0  0  0  0  0  0  0  0  0  0  0  0
    3.3530   47.3070   27.8570 H   0  0  0  0  0  0  0  0  0  0  0  0
    4.9081   46.4644   28.1718 H   0  0  0  0  0  0  0  0  0  0  0  0
    2.2748   49.3251   29.6380 H   0  0  0  0  0  0  0  0  0  0  0  0
    4.7511   52.8974   27.1914 H   0  0  0  0  0  0  0  0  0  0  0  0
    0.7285   53.8145   29.5632 H   0  0  0  0  0  0  0  0  0  0  0  0
    0.0740   53.1963   27.9726 H   0  0  0  0  0  0  0  0  0  0  0  0
    9.8226   40.7225   31.7628 H   0  0  0  0  0  0  0  0  0  0  0  0
   11.3831   41.5437   31.4675 H   0  0  0  0  0  0  0  0  0  0  0  0
   11.6978   39.5037   30.3478 H   0  0  0  0  0  0  0  0  0  0  0  0
   10.1084   38.2786   32.6626 H   0  0  0  0  0  0  0  0  0  0  0  0
   13.6638   37.4471   31.2214 H   0  0  0  0  0  0  0  0  0  0  0  0
    8.9763   37.4190   30.9532 H   0  0  0  0  0  0  0  0  0  0  0  0
   11.2821   36.3053   32.5171 H   0  0  0  0  0  0  0  0  0  0  0  0
   10.8658   35.6935   30.4652 H   0  0  0  0  0  0  0  0  0  0  0  0
   12.3293   38.3523   34.7444 H   0  0  0  0  0  0  0  0  0  0  0  0
   16.7561   34.1778   32.4621 H   0  0  0  0  0  0  0  0  0  0  0  0
   16.6345   34.5300   37.1416 H   0  0  0  0  0  0  0  0  0  0  0  0
   15.3533   35.7361   37.5139 H   0  0  0  0  0  0  0  0  0  0  0  0
  1  2  2  0
  1  3  1  0
  3  4  1  0
  4  5  1  0
  6  1  1  0
  7  6  1  0
  6  8  1  0
  8  9  1  0
  9 10  2  0
 11  9  1  0
 10 12  1  0
 13 11  2  0
 12 14  2  0
 14 13  1  0
 14 15  1  0
 15 16  1  0
 16 17  1  0
 16 18  1  0
 18 19  2  0
 20 18  1  0
 19 21  1  0
 22 20  2  0
 20 23  1  0
 21 24  1  0
 21 25  2  0
 25 22  1  0
 23 26  1  0
 23 27  2  0
 24 28  1  0
 25 29  1  0
 28 29  1  0
  4 30  2  0
  4 31  1  0
 32 31  1  0
 32 33  1  0
 33 34  1  0
 33 35  1  0
 34 36  1  0
 35 37  1  0
 35 38  1  0
 38 36  1  0
 36 39  1  0
 38 40  1  0
 41 39  1  0
 42 39  1  0
 43 41  2  0
 41 44  1  0
 45 42  2  0
 46 43  1  0
 44 47  2  0
 44 45  1  0
 48 46  2  0
 48 47  1  0
 47 49  1  0
  6 50  1  1
  7 51  1  0
  7 52  1  0
  8 53  1  0
  8 54  1  0
 10 55  1  0
 11 56  1  0
 12 57  1  0
 13 58  1  0
 16 59  1  1
 17 60  1  0
 17 61  1  0
 17 62  1  0
 19 63  1  0
 22 64  1  0
 28 65  1  0
 28 66  1  0
 32 67  1  0
 32 68  1  0
 33 69  1  0
 35 70  1  0
 36 71  1  0
 37 72  1  0
 38 73  1  0
 40 74  1  0
 42 75  1  0
 46 76  1  0
 49 77  1  0
 49 78  1  0
M  CHG  3   5  -1  23   1  26  -1
M  END
>  <EmbedRMS>  (147) 
0.0834369081973

$$$$

     RDKit          3D

 78 83  0  0  0  0  0  0  0  0999 V2000
   10.2835   43.7661   33.8257 C   0  0  0  0  0  0  0  0  0  0  0  0
   11.4102   43.5930   34.3753 O   0  0  0  0  0  0  0  0  0  0  0  0
    9.3638   42.7255   33.7349 O   0  0  0  0  0  0  0  0  0  0  0  0
    9.8907   41.2265   34.2934 P   0  0  0  0  0  0  0  0  0  0  0  0
   10.3743   41.4557   35.8828 O   0  0  0  0  0  0  0  0  0  0  0  0
    9.9547   45.0695   33.2037 C   0  0  1  0  0  0  0  0  0  0  0  0
   11.0274   46.0322   33.4758 N   0  0  0  0  0  0  0  0  0  0  0  0
    9.7465   44.8481   31.6879 C   0  0  0  0  0  0  0  0  0  0  0  0
    8.7922   45.8410   31.0850 C   0  0  0  0  0  0  0  0  0  0  0  0
    7.4058   45.6013   31.0988 C   0  0  0  0  0  0  0  0  0  0  0  0
    9.2820   46.9874   30.4421 C   0  0  0  0  0  0  0  0  0  0  0  0
    6.5273   46.5025   30.4829 C   0  0  0  0  0  0  0  0  0  0  0  0
    8.4033   47.8895   29.8305 C   0  0  0  0  0  0  0  0  0  0  0  0
    7.0131   47.6545   29.8488 C   0  0  0  0  0  0  0  0  0  0  0  0
    6.0818   48.5184   29.2489 O   0  0  0  0  0  0  0  0  0  0  0  0
    6.3605   49.8046   28.6937 C   0  0  2  0  0  0  0  0  0  0  0  0
    6.6627   50.8302   29.7951 C   0  0  0  0  0  0  0  0  0  0  0  0
    5.1917   50.2516   27.8296 C   0  0  0  0  0  0  0  0  0  0  0  0
    5.4385   50.4973   26.4553 C   0  0  0  0  0  0  0  0  0  0  0  0
    3.8697   50.4744   28.3492 C   0  0  0  0  0  0  0  0  0  0  0  0
    4.3972   50.9614   25.6625 C   0  0  0  0  0  0  0  0  0  0  0  0
    2.8542   50.9618   27.4955 C   0  0  0  0  0  0  0  0  0  0  0  0
    3.5416   50.2302   29.7239 N   0  0  0  0  0  0  0  0  0  0  0  0
    4.4145   51.2680   24.3153 O   0  0  0  0  0  0  0  0  0  0  0  0
    3.1609   51.1867   26.1611 C   0  0  0  0  0  0  0  0  0  0  0  0
    3.6836   48.9695   30.2530 O   0  0  0  0  0  0  0  0  0  0  0  0
    2.8862   51.0794   30.3621 O   0  0  0  0  0  0  0  0  0  0  0  0
    3.1023   51.7137   23.9462 C   0  0  0  0  0  0  0  0  0  0  0  0
    2.3332   51.6463   25.1548 O   0  0  0  0  0  0  0  0  0  0  0  0
    8.8123   40.1850   34.2127 O   0  0  0  0  0  0  0  0  0  0  0  0
   11.2407   40.7945   33.3670 O   0  0  0  0  0  0  0  0  0  0  0  0
   10.9134   40.6866   31.9954 C   0  0  0  0  0  0  0  0  0  0  0  0
   11.5167   39.3787   31.4404 C   0  0  0  0  0  0  0  0  0  0  0  0
   12.7486   39.0849   32.0734 O   0  0  0  0  0  0  0  0  0  0  0  0
   10.6039   38.1884   31.6669 C   0  0  0  0  0  0  0  0  0  0  0  0
   12.9329   37.6776   32.0284 C   0  0  0  0  0  0  0  0  0  0  0  0
    9.6374   38.0938   30.6484 O   0  0  0  0  0  0  0  0  0  0  0  0
   11.5737   37.0141   31.7055 C   0  0  0  0  0  0  0  0  0  0  0  0
   13.4853   37.2120   33.3238 N   0  0  0  0  0  0  0  0  0  0  0  0
   11.6210   36.3379   30.4683 O   0  0  0  0  0  0  0  0  0  0  0  0
   14.4804   36.3319   33.5726 C   0  0  0  0  0  0  0  0  0  0  0  0
   13.1141   37.6275   34.5689 C   0  0  0  0  0  0  0  0  0  0  0  0
   15.2076   35.6152   32.6740 N   0  0  0  0  0  0  0  0  0  0  0  0
   14.6761   36.2306   34.9181 C   0  0  0  0  0  0  0  0  0  0  0  0
   13.8218   37.0451   35.5783 N   0  0  0  0  0  0  0  0  0  0  0  0
   16.1642   34.7600   33.1548 C   0  0  0  0  0  0  0  0  0  0  0  0
   15.6527   35.3506   35.4131 C   0  0  0  0  0  0  0  0  0  0  0  0
   16.3795   34.6315   34.5043 N   0  0  0  0  0  0  0  0  0  0  0  0
   15.9000   35.1933   36.8090 N   0  0  0  0  0  0  0  0  0  0  0  0
    9.0122   45.4317   33.6717 H   0  0  0  0  0  0  0  0  0  0  0  0
   10.7260   46.9687   33.1214 H   0  0  0  0  0  0  0  0  0  0  0  0
   11.8906   45.7658   32.9471 H   0  0  0  0  0  0  0  0  0  0  0  0
    9.3414   43.8330   31.4764 H   0  0  0  0  0  0  0  0  0  0  0  0
   10.7229   44.8815   31.1558 H   0  0  0  0  0  0  0  0  0  0  0  0
    7.0086   44.7163   31.5803 H   0  0  0  0  0  0  0  0  0  0  0  0
   10.3469   47.1828   30.4092 H   0  0  0  0  0  0  0  0  0  0  0  0
    5.4629   46.3053   30.5004 H   0  0  0  0  0  0  0  0  0  0  0  0
    8.8227   48.7554   29.3402 H   0  0  0  0  0  0  0  0  0  0  0  0
    7.2642   49.7260   28.0513 H   0  0  0  0  0  0  0  0  0  0  0  0
    5.8741   50.8326   30.5735 H   0  0  0  0  0  0  0  0  0  0  0  0
    6.7459   51.8482   29.3582 H   0  0  0  0  0  0  0  0  0  0  0  0
    7.6252   50.5921   30.2917 H   0  0  0  0  0  0  0  0  0  0  0  0
    6.4159   50.3442   26.0155 H   0  0  0  0  0  0  0  0  0  0  0  0
    1.8519   51.1442   27.8617 H   0  0  0  0  0  0  0  0  0  0  0  0
    2.6693   51.0389   23.1784 H   0  0  0  0  0  0  0  0  0  0  0  0
    3.1420   52.7593   23.5751 H   0  0  0  0  0  0  0  0  0  0  0  0
   11.3828   41.5438   31.4669 H   0  0  0  0  0  0  0  0  0  0  0  0
    9.8225   40.7225   31.7631 H   0  0  0  0  0  0  0  0  0  0  0  0
   11.6978   39.5037   30.3478 H   0  0  0  0  0  0  0  0  0  0  0  0
   10.1084   38.2787   32.6627 H   0  0  0  0  0  0  0  0  0  0  0  0
   13.6638   37.4472   31.2214 H   0  0  0  0  0  0  0  0  0  0  0  0
    8.9763   37.4191   30.9532 H   0  0  0  0  0  0  0  0  0  0  0  0
   11.2821   36.3054   32.5172 H   0  0  0  0  0  0  0  0  0  0  0  0
   10.8658   35.6935   30.4652 H   0  0  0  0  0  0  0  0  0  0  0  0
   12.3293   38.3523   34.7444 H   0  0  0  0  0  0  0  0  0  0  0  0
   16.7561   34.1778   32.4621 H   0  0  0  0  0  0  0  0  0  0  0  0
   16.6345   34.5300   37.1416 H   0  0  0  0  0  0  0  0  0  0  0  0
   15.3533   35.7361   37.5138 H   0  0  0  0  0  0  0  0  0  0  0  0
  1  2  2  0
  1  3  1  0
  3  4  1  0
  4  5  1  0
  6  1  1  0
  7  6  1  0
  6  8  1  0
  8  9  1  0
  9 10  2  0
 11  9  1  0
 10 12  1  0
 13 11  2  0
 12 14  2  0
 14 13  1  0
 14 15  1  0
 15 16  1  0
 16 17  1  0
 16 18  1  0
 18 19  2  0
 20 18  1  0
 19 21  1  0
 22 20  2  0
 20 23  1  0
 21 24  1  0
 21 25  2  0
 25 22  1  0
 23 26  1  0
 23 27  2  0
 24 28  1  0
 25 29  1  0
 28 29  1  0
  4 30  2  0
  4 31  1  0
 32 31  1  0
 32 33  1  0
 33 34  1  0
 33 35  1  0
 34 36  1  0
 35 37  1  0
 35 38  1  0
 38 36  1  0
 36 39  1  0
 38 40  1  0
 41 39  1  0
 42 39  1  0
 43 41  2  0
 41 44  1  0
 45 42  2  0
 46 43  1  0
 44 47  2  0
 44 45  1  0
 48 46  2  0
 48 47  1  0
 47 49  1  0
  6 50  1  1
  7 51  1  0
  7 52  1  0
  8 53  1  0
  8 54  1  0
 10 55  1  0
 11 56  1  0
 12 57  1  0
 13 58  1  0
 16 59  1  6
 17 60  1  0
 17 61  1  0
 17 62  1  0
 19 63  1  0
 22 64  1  0
 28 65  1  0
 28 66  1  0
 32 67  1  0
 32 68  1  0
 33 69  1  0
 35 70  1  0
 36 71  1  0
 37 72  1  0
 38 73  1  0
 40 74  1  0
 42 75  1  0
 46 76  1  0
 49 77  1  0
 49 78  1  0
M  CHG  3   5  -1  23   1  26  -1
M  END
>  <EmbedRMS>  (148) 
0.0825437932466

$$$$

     RDKit          3D

 78 83  0  0  0  0  0  0  0  0999 V2000
   10.2835   43.7661   33.8257 C   0  0  0  0  0  0  0  0  0  0  0  0
   11.4102   43.5929   34.3753 O   0  0  0  0  0  0  0  0  0  0  0  0
    9.3637   42.7255   33.7350 O   0  0  0  0  0  0  0  0  0  0  0  0
    9.8902   41.2267   34.2942 P   0  0  0  0  0  0  0  0  0  0  0  0
   10.3736   41.4560   35.8836 O   0  0  0  0  0  0  0  0  0  0  0  0
    9.9547   45.0695   33.2037 C   0  0  1  0  0  0  0  0  0  0  0  0
   11.0274   46.0321   33.4757 N   0  0  0  0  0  0  0  0  0  0  0  0
    9.7466   44.8481   31.6878 C   0  0  0  0  0  0  0  0  0  0  0  0
    8.7923   45.8409   31.0847 C   0  0  0  0  0  0  0  0  0  0  0  0
    7.4058   45.6013   31.0988 C   0  0  0  0  0  0  0  0  0  0  0  0
    9.2821   46.9874   30.4421 C   0  0  0  0  0  0  0  0  0  0  0  0
    6.5272   46.5027   30.4832 C   0  0  0  0  0  0  0  0  0  0  0  0
    8.4034   47.8897   29.8307 C   0  0  0  0  0  0  0  0  0  0  0  0
    7.0131   47.6544   29.8487 C   0  0  0  0  0  0  0  0  0  0  0  0
    6.0824   48.5194   29.2492 O   0  0  0  0  0  0  0  0  0  0  0  0
    6.3721   49.7912   28.6602 C   0  0  2  0  0  0  0  0  0  0  0  0
    6.6493   50.8288   29.7539 C   0  0  0  0  0  0  0  0  0  0  0  0
    5.1854   50.2342   27.8249 C   0  0  0  0  0  0  0  0  0  0  0  0
    3.8830   50.0682   28.3585 C   0  0  0  0  0  0  0  0  0  0  0  0
    5.3371   50.7793   26.5053 C   0  0  0  0  0  0  0  0  0  0  0  0
    2.7928   50.4024   27.5662 C   0  0  0  0  0  0  0  0  0  0  0  0
    4.1888   51.0839   25.7396 C   0  0  0  0  0  0  0  0  0  0  0  0
    6.6293   51.0503   25.9399 N   0  0  0  0  0  0  0  0  0  0  0  0
    1.4486   50.3130   27.8728 O   0  0  0  0  0  0  0  0  0  0  0  0
    2.9391   50.8832   26.3103 C   0  0  0  0  0  0  0  0  0  0  0  0
    6.8339   50.8776   24.5904 O   0  0  0  0  0  0  0  0  0  0  0  0
    7.4896   51.6634   26.6047 O   0  0  0  0  0  0  0  0  0  0  0  0
    0.7042   50.7683   26.7346 C   0  0  0  0  0  0  0  0  0  0  0  0
    1.6947   51.1229   25.7599 O   0  0  0  0  0  0  0  0  0  0  0  0
    8.8121   40.1850   34.2131 O   0  0  0  0  0  0  0  0  0  0  0  0
   11.2404   40.7941   33.3690 O   0  0  0  0  0  0  0  0  0  0  0  0
   10.9144   40.6898   31.9972 C   0  0  0  0  0  0  0  0  0  0  0  0
   11.5261   39.3885   31.4376 C   0  0  0  0  0  0  0  0  0  0  0  0
   12.7505   39.0888   32.0815 O   0  0  0  0  0  0  0  0  0  0  0  0
   10.6115   38.1910   31.6460 C   0  0  0  0  0  0  0  0  0  0  0  0
   12.9357   37.6812   32.0303 C   0  0  0  0  0  0  0  0  0  0  0  0
    9.6146   38.0859   30.6534 O   0  0  0  0  0  0  0  0  0  0  0  0
   11.5769   37.0148   31.7012 C   0  0  0  0  0  0  0  0  0  0  0  0
   13.4849   37.2112   33.3247 N   0  0  0  0  0  0  0  0  0  0  0  0
   11.6193   36.3261   30.4724 O   0  0  0  0  0  0  0  0  0  0  0  0
   14.4802   36.3313   33.5730 C   0  0  0  0  0  0  0  0  0  0  0  0
   13.1141   37.6268   34.5698 C   0  0  0  0  0  0  0  0  0  0  0  0
   15.2075   35.6151   32.6741 N   0  0  0  0  0  0  0  0  0  0  0  0
   14.6761   36.2300   34.9184 C   0  0  0  0  0  0  0  0  0  0  0  0
   13.8220   37.0445   35.5789 N   0  0  0  0  0  0  0  0  0  0  0  0
   16.1642   34.7600   33.1547 C   0  0  0  0  0  0  0  0  0  0  0  0
   15.6529   35.3503   35.4132 C   0  0  0  0  0  0  0  0  0  0  0  0
   16.3797   34.6314   34.5042 N   0  0  0  0  0  0  0  0  0  0  0  0
   15.9004   35.1930   36.8091 N   0  0  0  0  0  0  0  0  0  0  0  0
    9.0121   45.4317   33.6716 H   0  0  0  0  0  0  0  0  0  0  0  0
   11.8907   45.7658   32.9470 H   0  0  0  0  0  0  0  0  0  0  0  0
   10.7260   46.9687   33.1213 H   0  0  0  0  0  0  0  0  0  0  0  0
    9.3414   43.8329   31.4764 H   0  0  0  0  0  0  0  0  0  0  0  0
   10.7230   44.8814   31.1558 H   0  0  0  0  0  0  0  0  0  0  0  0
    7.0086   44.7163   31.5804 H   0  0  0  0  0  0  0  0  0  0  0  0
   10.3469   47.1834   30.4101 H   0  0  0  0  0  0  0  0  0  0  0  0
    5.4627   46.3056   30.5008 H   0  0  0  0  0  0  0  0  0  0  0  0
    8.8219   48.7582   29.3438 H   0  0  0  0  0  0  0  0  0  0  0  0
    7.2646   49.6835   28.0129 H   0  0  0  0  0  0  0  0  0  0  0  0
    7.5458   50.5467   30.3424 H   0  0  0  0  0  0  0  0  0  0  0  0
    5.7848   50.9023   30.4477 H   0  0  0  0  0  0  0  0  0  0  0  0
    6.8326   51.8261   29.3008 H   0  0  0  0  0  0  0  0  0  0  0  0
    3.7247   49.6736   29.3544 H   0  0  0  0  0  0  0  0  0  0  0  0
    4.2694   51.4919   24.7403 H   0  0  0  0  0  0  0  0  0  0  0  0
    0.0593   49.9524   26.3462 H   0  0  0  0  0  0  0  0  0  0  0  0
    0.0961   51.6572   27.0039 H   0  0  0  0  0  0  0  0  0  0  0  0
   11.3780   41.5526   31.4727 H   0  0  0  0  0  0  0  0  0  0  0  0
    9.8234   40.7192   31.7646 H   0  0  0  0  0  0  0  0  0  0  0  0
   11.7283   39.5312   30.3515 H   0  0  0  0  0  0  0  0  0  0  0  0
   10.1127   38.2734   32.6376 H   0  0  0  0  0  0  0  0  0  0  0  0
   13.6692   37.4565   31.2242 H   0  0  0  0  0  0  0  0  0  0  0  0
   10.0534   38.1118   29.7636 H   0  0  0  0  0  0  0  0  0  0  0  0
   11.2606   36.3148   32.5102 H   0  0  0  0  0  0  0  0  0  0  0  0
   12.1496   35.5023   30.6324 H   0  0  0  0  0  0  0  0  0  0  0  0
   12.3301   38.3524   34.7455 H   0  0  0  0  0  0  0  0  0  0  0  0
   16.7563   34.1781   32.4619 H   0  0  0  0  0  0  0  0  0  0  0  0
   15.3535   35.7357   37.5140 H   0  0  0  0  0  0  0  0  0  0  0  0
   16.6350   34.5298   37.1416 H   0  0  0  0  0  0  0  0  0  0  0  0
  1  2  2  0
  1  3  1  0
  3  4  1  0
  4  5  1  0
  6  1  1  0
  7  6  1  0
  6  8  1  0
  8  9  1  0
  9 10  2  0
 11  9  1  0
 10 12  1  0
 13 11  2  0
 12 14  2  0
 14 13  1  0
 14 15  1  0
 15 16  1  0
 16 17  1  0
 16 18  1  0
 18 19  2  0
 20 18  1  0
 19 21  1  0
 22 20  2  0
 20 23  1  0
 21 24  1  0
 21 25  2  0
 25 22  1  0
 23 26  1  0
 23 27  2  0
 24 28  1  0
 25 29  1  0
 28 29  1  0
  4 30  2  0
  4 31  1  0
 32 31  1  0
 32 33  1  0
 33 34  1  0
 33 35  1  0
 34 36  1  0
 35 37  1  0
 35 38  1  0
 38 36  1  0
 36 39  1  0
 38 40  1  0
 41 39  1  0
 42 39  1  0
 43 41  2  0
 41 44  1  0
 45 42  2  0
 46 43  1  0
 44 47  2  0
 44 45  1  0
 48 46  2  0
 48 47  1  0
 47 49  1  0
  6 50  1  1
  7 51  1  0
  7 52  1  0
  8 53  1  0
  8 54  1  0
 10 55  1  0
 11 56  1  0
 12 57  1  0
 13 58  1  0
 16 59  1  6
 17 60  1  0
 17 61  1  0
 17 62  1  0
 19 63  1  0
 22 64  1  0
 28 65  1  0
 28 66  1  0
 32 67  1  0
 32 68  1  0
 33 69  1  0
 35 70  1  0
 36 71  1  0
 37 72  1  0
 38 73  1  0
 40 74  1  0
 42 75  1  0
 46 76  1  0
 49 77  1  0
 49 78  1  0
M  CHG  3   5  -1  23   1  26  -1
M  END
>  <EmbedRMS>  (149) 
0.0816120700492

$$$$

     RDKit          3D

 78 83  0  0  0  0  0  0  0  0999 V2000
   10.2834   43.7662   33.8256 C   0  0  0  0  0  0  0  0  0  0  0  0
   11.4102   43.5930   34.3752 O   0  0  0  0  0  0  0  0  0  0  0  0
    9.3636   42.7255   33.7349 O   0  0  0  0  0  0  0  0  0  0  0  0
    9.8905   41.2266   34.2934 P   0  0  0  0  0  0  0  0  0  0  0  0
   10.3743   41.4557   35.8827 O   0  0  0  0  0  0  0  0  0  0  0  0
    9.9546   45.0695   33.2035 C   0  0  1  0  0  0  0  0  0  0  0  0
   11.0274   46.0321   33.4756 N   0  0  0  0  0  0  0  0  0  0  0  0
    9.7466   44.8480   31.6876 C   0  0  0  0  0  0  0  0  0  0  0  0
    8.7923   45.8408   31.0844 C   0  0  0  0  0  0  0  0  0  0  0  0
    7.4055   45.6017   31.0993 C   0  0  0  0  0  0  0  0  0  0  0  0
    9.2822   46.9878   30.4425 C   0  0  0  0  0  0  0  0  0  0  0  0
    6.5267   46.5035   30.4841 C   0  0  0  0  0  0  0  0  0  0  0  0
    8.4031   47.8900   29.8323 C   0  0  0  0  0  0  0  0  0  0  0  0
    7.0142   47.6525   29.8464 C   0  0  0  0  0  0  0  0  0  0  0  0
    6.0893   48.5200   29.2427 O   0  0  0  0  0  0  0  0  0  0  0  0
    6.4181   49.7066   28.5139 C   0  0  2  0  0  0  0  0  0  0  0  0
    5.1312   50.4744   28.2213 C   0  0  0  0  0  0  0  0  0  0  0  0
    7.1194   49.3717   27.2076 C   0  0  0  0  0  0  0  0  0  0  0  0
    6.7040   48.2270   26.4826 C   0  0  0  0  0  0  0  0  0  0  0  0
    8.1144   50.2340   26.6414 C   0  0  0  0  0  0  0  0  0  0  0  0
    7.2950   47.9697   25.2525 C   0  0  0  0  0  0  0  0  0  0  0  0
    8.6702   49.9298   25.3787 C   0  0  0  0  0  0  0  0  0  0  0  0
    8.5506   51.4213   27.3165 N   0  0  0  0  0  0  0  0  0  0  0  0
    7.0536   46.9208   24.3863 O   0  0  0  0  0  0  0  0  0  0  0  0
    8.2362   48.7851   24.7237 C   0  0  0  0  0  0  0  0  0  0  0  0
    9.1669   51.3248   28.5422 O   0  0  0  0  0  0  0  0  0  0  0  0
    8.6269   52.4965   26.6871 O   0  0  0  0  0  0  0  0  0  0  0  0
    7.9010   47.0885   23.2415 C   0  0  0  0  0  0  0  0  0  0  0  0
    8.6388   48.2915   23.4977 O   0  0  0  0  0  0  0  0  0  0  0  0
    8.8122   40.1851   34.2128 O   0  0  0  0  0  0  0  0  0  0  0  0
   11.2403   40.7946   33.3668 O   0  0  0  0  0  0  0  0  0  0  0  0
   10.9126   40.6859   31.9954 C   0  0  0  0  0  0  0  0  0  0  0  0
   11.5175   39.3787   31.4405 C   0  0  0  0  0  0  0  0  0  0  0  0
   12.7490   39.0864   32.0752 O   0  0  0  0  0  0  0  0  0  0  0  0
   10.6061   38.1868   31.6656 C   0  0  0  0  0  0  0  0  0  0  0  0
   12.9355   37.6796   32.0292 C   0  0  0  0  0  0  0  0  0  0  0  0
    9.6399   38.0903   30.6471 O   0  0  0  0  0  0  0  0  0  0  0  0
   11.5765   37.0145   31.7044 C   0  0  0  0  0  0  0  0  0  0  0  0
   13.4858   37.2125   33.3244 N   0  0  0  0  0  0  0  0  0  0  0  0
   11.6101   36.3397   30.4673 O   0  0  0  0  0  0  0  0  0  0  0  0
   14.4805   36.3319   33.5729 C   0  0  0  0  0  0  0  0  0  0  0  0
   13.1143   37.6276   34.5694 C   0  0  0  0  0  0  0  0  0  0  0  0
   15.2076   35.6153   32.6741 N   0  0  0  0  0  0  0  0  0  0  0  0
   14.6760   36.2304   34.9184 C   0  0  0  0  0  0  0  0  0  0  0  0
   13.8219   37.0449   35.5786 N   0  0  0  0  0  0  0  0  0  0  0  0
   16.1641   34.7600   33.1548 C   0  0  0  0  0  0  0  0  0  0  0  0
   15.6528   35.3505   35.4132 C   0  0  0  0  0  0  0  0  0  0  0  0
   16.3795   34.6314   34.5043 N   0  0  0  0  0  0  0  0  0  0  0  0
   15.9002   35.1931   36.8091 N   0  0  0  0  0  0  0  0  0  0  0  0
    9.0121   45.4318   33.6714 H   0  0  0  0  0  0  0  0  0  0  0  0
   10.7260   46.9687   33.1212 H   0  0  0  0  0  0  0  0  0  0  0  0
   11.8906   45.7658   32.9469 H   0  0  0  0  0  0  0  0  0  0  0  0
    9.3414   43.8329   31.4762 H   0  0  0  0  0  0  0  0  0  0  0  0
   10.7229   44.8814   31.1556 H   0  0  0  0  0  0  0  0  0  0  0  0
    7.0082   44.7169   31.5813 H   0  0  0  0  0  0  0  0  0  0  0  0
   10.3468   47.1849   30.4116 H   0  0  0  0  0  0  0  0  0  0  0  0
    5.4622   46.3067   30.5010 H   0  0  0  0  0  0  0  0  0  0  0  0
    8.8159   48.7633   29.3501 H   0  0  0  0  0  0  0  0  0  0  0  0
    7.0413   50.3512   29.1635 H   0  0  0  0  0  0  0  0  0  0  0  0
    4.4411   49.8586   27.6053 H   0  0  0  0  0  0  0  0  0  0  0  0
    5.3605   51.4167   27.6788 H   0  0  0  0  0  0  0  0  0  0  0  0
    4.6223   50.7318   29.1744 H   0  0  0  0  0  0  0  0  0  0  0  0
    5.9355   47.5641   26.8591 H   0  0  0  0  0  0  0  0  0  0  0  0
    9.4228   50.5643   24.9283 H   0  0  0  0  0  0  0  0  0  0  0  0
    8.5943   46.2266   23.1473 H   0  0  0  0  0  0  0  0  0  0  0  0
    7.2877   47.2034   22.3233 H   0  0  0  0  0  0  0  0  0  0  0  0
    9.8215   40.7200   31.7636 H   0  0  0  0  0  0  0  0  0  0  0  0
   11.3803   41.5437   31.4663 H   0  0  0  0  0  0  0  0  0  0  0  0
   11.6998   39.5041   30.3482 H   0  0  0  0  0  0  0  0  0  0  0  0
   10.1085   38.2767   32.6603 H   0  0  0  0  0  0  0  0  0  0  0  0
   13.6679   37.4520   31.2229 H   0  0  0  0  0  0  0  0  0  0  0  0
    9.0016   37.3868   30.9349 H   0  0  0  0  0  0  0  0  0  0  0  0
   11.2666   36.3062   32.5084 H   0  0  0  0  0  0  0  0  0  0  0  0
   12.1389   35.5126   30.6150 H   0  0  0  0  0  0  0  0  0  0  0  0
   12.3300   38.3529   34.7449 H   0  0  0  0  0  0  0  0  0  0  0  0
   16.7560   34.1779   32.4621 H   0  0  0  0  0  0  0  0  0  0  0  0
   15.3534   35.7359   37.5140 H   0  0  0  0  0  0  0  0  0  0  0  0
   16.6347   34.5298   37.1416 H   0  0  0  0  0  0  0  0  0  0  0  0
  1  2  2  0
  1  3  1  0
  3  4  1  0
  4  5  1  0
  6  1  1  0
  7  6  1  0
  6  8  1  0
  8  9  1  0
  9 10  2  0
 11  9  1  0
 10 12  1  0
 13 11  2  0
 12 14  2  0
 14 13  1  0
 14 15  1  0
 15 16  1  0
 16 17  1  0
 16 18  1  0
 18 19  2  0
 20 18  1  0
 19 21  1  0
 22 20  2  0
 20 23  1  0
 21 24  1  0
 21 25  2  0
 25 22  1  0
 23 26  1  0
 23 27  2  0
 24 28  1  0
 25 29  1  0
 28 29  1  0
  4 30  2  0
  4 31  1  0
 32 31  1  0
 32 33  1  0
 33 34  1  0
 33 35  1  0
 34 36  1  0
 35 37  1  0
 35 38  1  0
 38 36  1  0
 36 39  1  0
 38 40  1  0
 41 39  1  0
 42 39  1  0
 43 41  2  0
 41 44  1  0
 45 42  2  0
 46 43  1  0
 44 47  2  0
 44 45  1  0
 48 46  2  0
 48 47  1  0
 47 49  1  0
  6 50  1  1
  7 51  1  0
  7 52  1  0
  8 53  1  0
  8 54  1  0
 10 55  1  0
 11 56  1  0
 12 57  1  0
 13 58  1  0
 16 59  1  1
 17 60  1  0
 17 61  1  0
 17 62  1  0
 19 63  1  0
 22 64  1  0
 28 65  1  0
 28 66  1  0
 32 67  1  0
 32 68  1  0
 33 69  1  0
 35 70  1  0
 36 71  1  0
 37 72  1  0
 38 73  1  0
 40 74  1  0
 42 75  1  0
 46 76  1  0
 49 77  1  0
 49 78  1  0
M  CHG  3   5  -1  23   1  26  -1
M  END
>  <EmbedRMS>  (150) 
0.0824032931222

$$$$

     RDKit          3D

 78 83  0  0  0  0  0  0  0  0999 V2000
   10.2804   43.7665   33.8251 C   0  0  0  0  0  0  0  0  0  0  0  0
   11.4111   43.5918   34.3667 O   0  0  0  0  0  0  0  0  0  0  0  0
    9.3617   42.7251   33.7349 O   0  0  0  0  0  0  0  0  0  0  0  0
    9.8896   41.2269   34.2945 P   0  0  0  0  0  0  0  0  0  0  0  0
   10.3732   41.4568   35.8838 O   0  0  0  0  0  0  0  0  0  0  0  0
    9.9459   45.0736   33.2113 C   0  0  1  0  0  0  0  0  0  0  0  0
   11.0268   46.0291   33.4706 N   0  0  0  0  0  0  0  0  0  0  0  0
    9.7535   44.8539   31.6952 C   0  0  0  0  0  0  0  0  0  0  0  0
    8.7955   45.8413   31.0853 C   0  0  0  0  0  0  0  0  0  0  0  0
    7.4090   45.6002   31.1004 C   0  0  0  0  0  0  0  0  0  0  0  0
    9.2827   46.9874   30.4396 C   0  0  0  0  0  0  0  0  0  0  0  0
    6.5287   46.5003   30.4844 C   0  0  0  0  0  0  0  0  0  0  0  0
    8.4025   47.8887   29.8291 C   0  0  0  0  0  0  0  0  0  0  0  0
    7.0127   47.6528   29.8497 C   0  0  0  0  0  0  0  0  0  0  0  0
    6.0796   48.5162   29.2517 O   0  0  0  0  0  0  0  0  0  0  0  0
    6.3553   49.8053   28.7013 C   0  0  2  0  0  0  0  0  0  0  0  0
    6.6607   50.8279   29.8047 C   0  0  0  0  0  0  0  0  0  0  0  0
    5.1841   50.2553   27.8410 C   0  0  0  0  0  0  0  0  0  0  0  0
    5.4304   50.5026   26.4667 C   0  0  0  0  0  0  0  0  0  0  0  0
    3.8617   50.4821   28.3622 C   0  0  0  0  0  0  0  0  0  0  0  0
    4.3910   50.9736   25.6759 C   0  0  0  0  0  0  0  0  0  0  0  0
    2.8497   50.9781   27.5100 C   0  0  0  0  0  0  0  0  0  0  0  0
    3.5272   50.2404   29.7365 N   0  0  0  0  0  0  0  0  0  0  0  0
    4.4089   51.2832   24.3294 O   0  0  0  0  0  0  0  0  0  0  0  0
    3.1566   51.2044   26.1760 C   0  0  0  0  0  0  0  0  0  0  0  0
    2.7321   51.1399   30.4083 O   0  0  0  0  0  0  0  0  0  0  0  0
    3.7257   49.1189   30.2449 O   0  0  0  0  0  0  0  0  0  0  0  0
    3.0989   51.7368   23.9624 C   0  0  0  0  0  0  0  0  0  0  0  0
    2.3305   51.6708   25.1714 O   0  0  0  0  0  0  0  0  0  0  0  0
    8.8122   40.1844   34.2135 O   0  0  0  0  0  0  0  0  0  0  0  0
   11.2401   40.7950   33.3698 O   0  0  0  0  0  0  0  0  0  0  0  0
   10.9143   40.6914   31.9981 C   0  0  0  0  0  0  0  0  0  0  0  0
   11.5270   39.3912   31.4385 C   0  0  0  0  0  0  0  0  0  0  0  0
   12.7520   39.0911   32.0837 O   0  0  0  0  0  0  0  0  0  0  0  0
   10.6113   38.1932   31.6451 C   0  0  0  0  0  0  0  0  0  0  0  0
   12.9413   37.6838   32.0297 C   0  0  0  0  0  0  0  0  0  0  0  0
    9.6064   38.0878   30.6599 O   0  0  0  0  0  0  0  0  0  0  0  0
   11.5822   37.0197   31.6877 C   0  0  0  0  0  0  0  0  0  0  0  0
   13.4840   37.2104   33.3254 N   0  0  0  0  0  0  0  0  0  0  0  0
   11.6179   36.3072   30.4690 O   0  0  0  0  0  0  0  0  0  0  0  0
   14.4797   36.3309   33.5738 C   0  0  0  0  0  0  0  0  0  0  0  0
   13.1136   37.6269   34.5702 C   0  0  0  0  0  0  0  0  0  0  0  0
   15.2074   35.6152   32.6747 N   0  0  0  0  0  0  0  0  0  0  0  0
   14.6756   36.2298   34.9190 C   0  0  0  0  0  0  0  0  0  0  0  0
   13.8217   37.0445   35.5794 N   0  0  0  0  0  0  0  0  0  0  0  0
   16.1643   34.7603   33.1551 C   0  0  0  0  0  0  0  0  0  0  0  0
   15.6528   35.3503   35.4136 C   0  0  0  0  0  0  0  0  0  0  0  0
   16.3798   34.6316   34.5046 N   0  0  0  0  0  0  0  0  0  0  0  0
   15.9004   35.1930   36.8094 N   0  0  0  0  0  0  0  0  0  0  0  0
    8.9997   45.4383   33.6725 H   0  0  0  0  0  0  0  0  0  0  0  0
   10.7766   46.9368   33.0156 H   0  0  0  0  0  0  0  0  0  0  0  0
   11.0506   46.2278   34.4980 H   0  0  0  0  0  0  0  0  0  0  0  0
   10.7406   44.9070   31.1836 H   0  0  0  0  0  0  0  0  0  0  0  0
    9.3635   43.8353   31.4717 H   0  0  0  0  0  0  0  0  0  0  0  0
    7.0134   44.7156   31.5841 H   0  0  0  0  0  0  0  0  0  0  0  0
   10.3472   47.1842   30.4039 H   0  0  0  0  0  0  0  0  0  0  0  0
    5.4644   46.3024   30.5035 H   0  0  0  0  0  0  0  0  0  0  0  0
    8.8204   48.7547   29.3376 H   0  0  0  0  0  0  0  0  0  0  0  0
    7.2578   49.7294   28.0569 H   0  0  0  0  0  0  0  0  0  0  0  0
    7.6201   50.5833   30.3042 H   0  0  0  0  0  0  0  0  0  0  0  0
    5.8698   50.8366   30.5806 H   0  0  0  0  0  0  0  0  0  0  0  0
    6.7522   51.8455   29.3683 H   0  0  0  0  0  0  0  0  0  0  0  0
    6.4067   50.3465   26.0254 H   0  0  0  0  0  0  0  0  0  0  0  0
    1.8482   51.1649   27.8759 H   0  0  0  0  0  0  0  0  0  0  0  0
    2.6616   51.0660   23.1934 H   0  0  0  0  0  0  0  0  0  0  0  0
    3.1439   52.7829   23.5936 H   0  0  0  0  0  0  0  0  0  0  0  0
   11.3775   41.5548   31.4741 H   0  0  0  0  0  0  0  0  0  0  0  0
    9.8233   40.7200   31.7652 H   0  0  0  0  0  0  0  0  0  0  0  0
   11.7312   39.5362   30.3532 H   0  0  0  0  0  0  0  0  0  0  0  0
   10.1202   38.2696   32.6410 H   0  0  0  0  0  0  0  0  0  0  0  0
   13.6850   37.4639   31.2321 H   0  0  0  0  0  0  0  0  0  0  0  0
   10.0251   38.1792   29.7654 H   0  0  0  0  0  0  0  0  0  0  0  0
   11.2757   36.3135   32.4907 H   0  0  0  0  0  0  0  0  0  0  0  0
   11.9839   36.9111   29.7708 H   0  0  0  0  0  0  0  0  0  0  0  0
   12.3307   38.3536   34.7458 H   0  0  0  0  0  0  0  0  0  0  0  0
   16.7566   34.1787   32.4623 H   0  0  0  0  0  0  0  0  0  0  0  0
   15.3535   35.7355   37.5144 H   0  0  0  0  0  0  0  0  0  0  0  0
   16.6353   34.5300   37.1419 H   0  0  0  0  0  0  0  0  0  0  0  0
  1  2  2  0
  1  3  1  0
  3  4  1  0
  4  5  1  0
  6  1  1  0
  7  6  1  0
  6  8  1  0
  8  9  1  0
  9 10  2  0
 11  9  1  0
 10 12  1  0
 13 11  2  0
 12 14  2  0
 14 13  1  0
 14 15  1  0
 15 16  1  0
 16 17  1  0
 16 18  1  0
 18 19  2  0
 20 18  1  0
 19 21  1  0
 22 20  2  0
 20 23  1  0
 21 24  1  0
 21 25  2  0
 25 22  1  0
 23 26  1  0
 23 27  2  0
 24 28  1  0
 25 29  1  0
 28 29  1  0
  4 30  2  0
  4 31  1  0
 32 31  1  0
 32 33  1  0
 33 34  1  0
 33 35  1  0
 34 36  1  0
 35 37  1  0
 35 38  1  0
 38 36  1  0
 36 39  1  0
 38 40  1  0
 41 39  1  0
 42 39  1  0
 43 41  2  0
 41 44  1  0
 45 42  2  0
 46 43  1  0
 44 47  2  0
 44 45  1  0
 48 46  2  0
 48 47  1  0
 47 49  1  0
  6 50  1  1
  7 51  1  0
  7 52  1  0
  8 53  1  0
  8 54  1  0
 10 55  1  0
 11 56  1  0
 12 57  1  0
 13 58  1  0
 16 59  1  6
 17 60  1  0
 17 61  1  0
 17 62  1  0
 19 63  1  0
 22 64  1  0
 28 65  1  0
 28 66  1  0
 32 67  1  0
 32 68  1  0
 33 69  1  0
 35 70  1  0
 36 71  1  0
 37 72  1  0
 38 73  1  0
 40 74  1  0
 42 75  1  0
 46 76  1  0
 49 77  1  0
 49 78  1  0
M  CHG  3   5  -1  23   1  26  -1
M  END
>  <EmbedRMS>  (151) 
0.0806388019115

$$$$

     RDKit          3D

 78 83  0  0  0  0  0  0  0  0999 V2000
   10.2835   43.7661   33.8256 C   0  0  0  0  0  0  0  0  0  0  0  0
   11.4102   43.5931   34.3753 O   0  0  0  0  0  0  0  0  0  0  0  0
    9.3640   42.7253   33.7347 O   0  0  0  0  0  0  0  0  0  0  0  0
    9.8907   41.2264   34.2939 P   0  0  0  0  0  0  0  0  0  0  0  0
   10.3734   41.4557   35.8835 O   0  0  0  0  0  0  0  0  0  0  0  0
    9.9546   45.0694   33.2034 C   0  0  1  0  0  0  0  0  0  0  0  0
   11.0272   46.0322   33.4755 N   0  0  0  0  0  0  0  0  0  0  0  0
    9.7467   44.8479   31.6875 C   0  0  0  0  0  0  0  0  0  0  0  0
    8.7923   45.8405   31.0841 C   0  0  0  0  0  0  0  0  0  0  0  0
    7.4056   45.6018   31.0995 C   0  0  0  0  0  0  0  0  0  0  0  0
    9.2820   46.9879   30.4428 C   0  0  0  0  0  0  0  0  0  0  0  0
    6.5270   46.5038   30.4848 C   0  0  0  0  0  0  0  0  0  0  0  0
    8.4030   47.8905   29.8329 C   0  0  0  0  0  0  0  0  0  0  0  0
    7.0141   47.6521   29.8452 C   0  0  0  0  0  0  0  0  0  0  0  0
    6.0867   48.5184   29.2426 O   0  0  0  0  0  0  0  0  0  0  0  0
    6.4099   49.6725   28.4660 C   0  0  2  0  0  0  0  0  0  0  0  0
    5.1497   50.5120   28.2538 C   0  0  0  0  0  0  0  0  0  0  0  0
    7.0401   49.2883   27.1351 C   0  0  0  0  0  0  0  0  0  0  0  0
    8.2935   49.8590   26.8032 C   0  0  0  0  0  0  0  0  0  0  0  0
    6.3952   48.4252   26.1863 C   0  0  0  0  0  0  0  0  0  0  0  0
    8.8567   49.5587   25.5698 C   0  0  0  0  0  0  0  0  0  0  0  0
    7.0094   48.1671   24.9408 C   0  0  0  0  0  0  0  0  0  0  0  0
    5.1235   47.8232   26.4555 N   0  0  0  0  0  0  0  0  0  0  0  0
   10.0577   49.9957   25.0449 O   0  0  0  0  0  0  0  0  0  0  0  0
    8.2413   48.7497   24.6775 C   0  0  0  0  0  0  0  0  0  0  0  0
    5.0160   46.8629   27.4331 O   0  0  0  0  0  0  0  0  0  0  0  0
    4.1996   47.9420   25.6248 O   0  0  0  0  0  0  0  0  0  0  0  0
   10.2047   49.4214   23.7390 C   0  0  0  0  0  0  0  0  0  0  0  0
    9.0224   48.6334   23.5439 O   0  0  0  0  0  0  0  0  0  0  0  0
    8.8126   40.1847   34.2123 O   0  0  0  0  0  0  0  0  0  0  0  0
   11.2418   40.7942   33.3694 O   0  0  0  0  0  0  0  0  0  0  0  0
   10.9179   40.6904   31.9969 C   0  0  0  0  0  0  0  0  0  0  0  0
   11.5181   39.3813   31.4408 C   0  0  0  0  0  0  0  0  0  0  0  0
   12.7498   39.0870   32.0745 O   0  0  0  0  0  0  0  0  0  0  0  0
   10.6045   38.1891   31.6656 C   0  0  0  0  0  0  0  0  0  0  0  0
   12.9344   37.6801   32.0290 C   0  0  0  0  0  0  0  0  0  0  0  0
    9.6418   38.0757   30.6442 O   0  0  0  0  0  0  0  0  0  0  0  0
   11.5741   37.0170   31.7045 C   0  0  0  0  0  0  0  0  0  0  0  0
   13.4851   37.2125   33.3241 N   0  0  0  0  0  0  0  0  0  0  0  0
   11.6079   36.3407   30.4680 O   0  0  0  0  0  0  0  0  0  0  0  0
   14.4802   36.3321   33.5727 C   0  0  0  0  0  0  0  0  0  0  0  0
   13.1140   37.6277   34.5692 C   0  0  0  0  0  0  0  0  0  0  0  0
   15.2073   35.6155   32.6739 N   0  0  0  0  0  0  0  0  0  0  0  0
   14.6758   36.2306   34.9182 C   0  0  0  0  0  0  0  0  0  0  0  0
   13.8217   37.0450   35.5784 N   0  0  0  0  0  0  0  0  0  0  0  0
   16.1639   34.7601   33.1546 C   0  0  0  0  0  0  0  0  0  0  0  0
   15.6526   35.3506   35.4130 C   0  0  0  0  0  0  0  0  0  0  0  0
   16.3794   34.6316   34.5041 N   0  0  0  0  0  0  0  0  0  0  0  0
   15.9000   35.1933   36.8089 N   0  0  0  0  0  0  0  0  0  0  0  0
    9.0119   45.4316   33.6711 H   0  0  0  0  0  0  0  0  0  0  0  0
   11.8904   45.7660   32.9468 H   0  0  0  0  0  0  0  0  0  0  0  0
   10.7256   46.9687   33.1210 H   0  0  0  0  0  0  0  0  0  0  0  0
   10.7230   44.8815   31.1555 H   0  0  0  0  0  0  0  0  0  0  0  0
    9.3417   43.8327   31.4760 H   0  0  0  0  0  0  0  0  0  0  0  0
    7.0082   44.7172   31.5818 H   0  0  0  0  0  0  0  0  0  0  0  0
   10.3465   47.1862   30.4141 H   0  0  0  0  0  0  0  0  0  0  0  0
    5.4625   46.3071   30.5023 H   0  0  0  0  0  0  0  0  0  0  0  0
    8.8174   48.7677   29.3602 H   0  0  0  0  0  0  0  0  0  0  0  0
    7.1048   50.3101   29.0568 H   0  0  0  0  0  0  0  0  0  0  0  0
    4.7694   50.8667   29.2352 H   0  0  0  0  0  0  0  0  0  0  0  0
    5.3808   51.3993   27.6262 H   0  0  0  0  0  0  0  0  0  0  0  0
    4.3474   49.9218   27.7666 H   0  0  0  0  0  0  0  0  0  0  0  0
    8.8119   50.5257   27.4807 H   0  0  0  0  0  0  0  0  0  0  0  0
    6.5419   47.5228   24.2071 H   0  0  0  0  0  0  0  0  0  0  0  0
   11.1063   48.7747   23.7032 H   0  0  0  0  0  0  0  0  0  0  0  0
   10.2627   50.2217   22.9718 H   0  0  0  0  0  0  0  0  0  0  0  0
   11.3948   41.5458   31.4723 H   0  0  0  0  0  0  0  0  0  0  0  0
    9.8290   40.7388   31.7616 H   0  0  0  0  0  0  0  0  0  0  0  0
   11.6995   39.5068   30.3483 H   0  0  0  0  0  0  0  0  0  0  0  0
   10.1091   38.2635   32.6633 H   0  0  0  0  0  0  0  0  0  0  0  0
   13.6662   37.4513   31.2224 H   0  0  0  0  0  0  0  0  0  0  0  0
    8.9009   38.6926   30.8793 H   0  0  0  0  0  0  0  0  0  0  0  0
   11.2651   36.3082   32.5087 H   0  0  0  0  0  0  0  0  0  0  0  0
   12.1372   35.5141   30.6163 H   0  0  0  0  0  0  0  0  0  0  0  0
   12.3297   38.3530   34.7449 H   0  0  0  0  0  0  0  0  0  0  0  0
   16.7558   34.1780   32.4619 H   0  0  0  0  0  0  0  0  0  0  0  0
   15.3533   35.7360   37.5138 H   0  0  0  0  0  0  0  0  0  0  0  0
   16.6346   34.5300   37.1413 H   0  0  0  0  0  0  0  0  0  0  0  0
  1  2  2  0
  1  3  1  0
  3  4  1  0
  4  5  1  0
  6  1  1  0
  7  6  1  0
  6  8  1  0
  8  9  1  0
  9 10  2  0
 11  9  1  0
 10 12  1  0
 13 11  2  0
 12 14  2  0
 14 13  1  0
 14 15  1  0
 15 16  1  0
 16 17  1  0
 16 18  1  0
 18 19  2  0
 20 18  1  0
 19 21  1  0
 22 20  2  0
 20 23  1  0
 21 24  1  0
 21 25  2  0
 25 22  1  0
 23 26  1  0
 23 27  2  0
 24 28  1  0
 25 29  1  0
 28 29  1  0
  4 30  2  0
  4 31  1  0
 32 31  1  0
 32 33  1  0
 33 34  1  0
 33 35  1  0
 34 36  1  0
 35 37  1  0
 35 38  1  0
 38 36  1  0
 36 39  1  0
 38 40  1  0
 41 39  1  0
 42 39  1  0
 43 41  2  0
 41 44  1  0
 45 42  2  0
 46 43  1  0
 44 47  2  0
 44 45  1  0
 48 46  2  0
 48 47  1  0
 47 49  1  0
  6 50  1  1
  7 51  1  0
  7 52  1  0
  8 53  1  0
  8 54  1  0
 10 55  1  0
 11 56  1  0
 12 57  1  0
 13 58  1  0
 16 59  1  1
 17 60  1  0
 17 61  1  0
 17 62  1  0
 19 63  1  0
 22 64  1  0
 28 65  1  0
 28 66  1  0
 32 67  1  0
 32 68  1  0
 33 69  1  0
 35 70  1  0
 36 71  1  0
 37 72  1  0
 38 73  1  0
 40 74  1  0
 42 75  1  0
 46 76  1  0
 49 77  1  0
 49 78  1  0
M  CHG  3   5  -1  23   1  26  -1
M  END
>  <EmbedRMS>  (152) 
0.0828671300049

$$$$

     RDKit          3D

 78 83  0  0  0  0  0  0  0  0999 V2000
   10.2804   43.7664   33.8250 C   0  0  0  0  0  0  0  0  0  0  0  0
   11.4110   43.5918   34.3667 O   0  0  0  0  0  0  0  0  0  0  0  0
    9.3618   42.7250   33.7344 O   0  0  0  0  0  0  0  0  0  0  0  0
    9.8901   41.2265   34.2931 P   0  0  0  0  0  0  0  0  0  0  0  0
   10.3742   41.4563   35.8823 O   0  0  0  0  0  0  0  0  0  0  0  0
    9.9460   45.0736   33.2112 C   0  0  1  0  0  0  0  0  0  0  0  0
   11.0267   46.0292   33.4709 N   0  0  0  0  0  0  0  0  0  0  0  0
    9.7541   44.8542   31.6949 C   0  0  0  0  0  0  0  0  0  0  0  0
    8.7960   45.8413   31.0850 C   0  0  0  0  0  0  0  0  0  0  0  0
    7.4097   45.6005   31.1010 C   0  0  0  0  0  0  0  0  0  0  0  0
    9.2823   46.9876   30.4400 C   0  0  0  0  0  0  0  0  0  0  0  0
    6.5264   46.4990   30.4864 C   0  0  0  0  0  0  0  0  0  0  0  0
    8.3993   47.8862   29.8313 C   0  0  0  0  0  0  0  0  0  0  0  0
    7.0170   47.6557   29.8453 C   0  0  0  0  0  0  0  0  0  0  0  0
    6.1916   48.5964   29.2016 O   0  0  0  0  0  0  0  0  0  0  0  0
    4.7606   48.5884   29.1086 C   0  0  2  0  0  0  0  0  0  0  0  0
    4.1421   48.9222   30.4756 C   0  0  0  0  0  0  0  0  0  0  0  0
    4.2468   47.3246   28.4165 C   0  0  0  0  0  0  0  0  0  0  0  0
    3.1931   46.5581   28.9859 C   0  0  0  0  0  0  0  0  0  0  0  0
    4.8412   46.8745   27.1871 C   0  0  0  0  0  0  0  0  0  0  0  0
    2.8072   45.3826   28.3561 C   0  0  0  0  0  0  0  0  0  0  0  0
    4.4133   45.6605   26.6022 C   0  0  0  0  0  0  0  0  0  0  0  0
    5.8773   47.6244   26.5301 N   0  0  0  0  0  0  0  0  0  0  0  0
    1.8279   44.4862   28.7392 O   0  0  0  0  0  0  0  0  0  0  0  0
    3.3941   44.9505   27.2184 C   0  0  0  0  0  0  0  0  0  0  0  0
    5.7555   48.9841   26.3627 O   0  0  0  0  0  0  0  0  0  0  0  0
    6.8024   47.0272   25.9418 O   0  0  0  0  0  0  0  0  0  0  0  0
    1.8004   43.4230   27.7774 C   0  0  0  0  0  0  0  0  0  0  0  0
    2.8164   43.7593   26.8230 O   0  0  0  0  0  0  0  0  0  0  0  0
    8.8123   40.1844   34.2130 O   0  0  0  0  0  0  0  0  0  0  0  0
   11.2401   40.7949   33.3666 O   0  0  0  0  0  0  0  0  0  0  0  0
   10.9124   40.6859   31.9952 C   0  0  0  0  0  0  0  0  0  0  0  0
   11.5175   39.3786   31.4405 C   0  0  0  0  0  0  0  0  0  0  0  0
   12.7490   39.0864   32.0753 O   0  0  0  0  0  0  0  0  0  0  0  0
   10.6060   38.1868   31.6656 C   0  0  0  0  0  0  0  0  0  0  0  0
   12.9355   37.6796   32.0292 C   0  0  0  0  0  0  0  0  0  0  0  0
    9.6399   38.0903   30.6471 O   0  0  0  0  0  0  0  0  0  0  0  0
   11.5765   37.0145   31.7044 C   0  0  0  0  0  0  0  0  0  0  0  0
   13.4858   37.2125   33.3244 N   0  0  0  0  0  0  0  0  0  0  0  0
   11.6101   36.3397   30.4673 O   0  0  0  0  0  0  0  0  0  0  0  0
   14.4805   36.3319   33.5729 C   0  0  0  0  0  0  0  0  0  0  0  0
   13.1143   37.6276   34.5694 C   0  0  0  0  0  0  0  0  0  0  0  0
   15.2076   35.6154   32.6741 N   0  0  0  0  0  0  0  0  0  0  0  0
   14.6760   36.2304   34.9184 C   0  0  0  0  0  0  0  0  0  0  0  0
   13.8219   37.0449   35.5786 N   0  0  0  0  0  0  0  0  0  0  0  0
   16.1641   34.7600   33.1548 C   0  0  0  0  0  0  0  0  0  0  0  0
   15.6528   35.3505   35.4132 C   0  0  0  0  0  0  0  0  0  0  0  0
   16.3795   34.6314   34.5043 N   0  0  0  0  0  0  0  0  0  0  0  0
   15.9002   35.1932   36.8091 N   0  0  0  0  0  0  0  0  0  0  0  0
    8.9996   45.4381   33.6721 H   0  0  0  0  0  0  0  0  0  0  0  0
   10.7765   46.9369   33.0160 H   0  0  0  0  0  0  0  0  0  0  0  0
   11.0502   46.2277   34.4983 H   0  0  0  0  0  0  0  0  0  0  0  0
   10.7413   44.9079   31.1837 H   0  0  0  0  0  0  0  0  0  0  0  0
    9.3646   43.8355   31.4710 H   0  0  0  0  0  0  0  0  0  0  0  0
    7.0158   44.7149   31.5846 H   0  0  0  0  0  0  0  0  0  0  0  0
   10.3461   47.1874   30.4050 H   0  0  0  0  0  0  0  0  0  0  0  0
    5.4741   46.2720   30.5189 H   0  0  0  0  0  0  0  0  0  0  0  0
    8.7926   48.7663   29.3384 H   0  0  0  0  0  0  0  0  0  0  0  0
    4.4770   49.4381   28.4529 H   0  0  0  0  0  0  0  0  0  0  0  0
    4.2967   48.1071   31.2102 H   0  0  0  0  0  0  0  0  0  0  0  0
    3.0542   49.1193   30.3684 H   0  0  0  0  0  0  0  0  0  0  0  0
    4.6134   49.8433   30.8793 H   0  0  0  0  0  0  0  0  0  0  0  0
    2.6924   46.8415   29.8999 H   0  0  0  0  0  0  0  0  0  0  0  0
    4.8498   45.2930   25.6824 H   0  0  0  0  0  0  0  0  0  0  0  0
    0.8082   43.3792   27.2814 H   0  0  0  0  0  0  0  0  0  0  0  0
    2.0398   42.4558   28.2671 H   0  0  0  0  0  0  0  0  0  0  0  0
    9.8214   40.7199   31.7634 H   0  0  0  0  0  0  0  0  0  0  0  0
   11.3801   41.5436   31.4660 H   0  0  0  0  0  0  0  0  0  0  0  0
   11.6999   39.5040   30.3482 H   0  0  0  0  0  0  0  0  0  0  0  0
   10.1085   38.2766   32.6603 H   0  0  0  0  0  0  0  0  0  0  0  0
   13.6679   37.4521   31.2229 H   0  0  0  0  0  0  0  0  0  0  0  0
    9.0016   37.3868   30.9349 H   0  0  0  0  0  0  0  0  0  0  0  0
   11.2666   36.3062   32.5083 H   0  0  0  0  0  0  0  0  0  0  0  0
   12.1389   35.5126   30.6150 H   0  0  0  0  0  0  0  0  0  0  0  0
   12.3300   38.3529   34.7450 H   0  0  0  0  0  0  0  0  0  0  0  0
   16.7560   34.1780   32.4620 H   0  0  0  0  0  0  0  0  0  0  0  0
   15.3534   35.7359   37.5140 H   0  0  0  0  0  0  0  0  0  0  0  0
   16.6347   34.5298   37.1416 H   0  0  0  0  0  0  0  0  0  0  0  0
  1  2  2  0
  1  3  1  0
  3  4  1  0
  4  5  1  0
  6  1  1  0
  7  6  1  0
  6  8  1  0
  8  9  1  0
  9 10  2  0
 11  9  1  0
 10 12  1  0
 13 11  2  0
 12 14  2  0
 14 13  1  0
 14 15  1  0
 15 16  1  0
 16 17  1  0
 16 18  1  0
 18 19  2  0
 20 18  1  0
 19 21  1  0
 22 20  2  0
 20 23  1  0
 21 24  1  0
 21 25  2  0
 25 22  1  0
 23 26  1  0
 23 27  2  0
 24 28  1  0
 25 29  1  0
 28 29  1  0
  4 30  2  0
  4 31  1  0
 32 31  1  0
 32 33  1  0
 33 34  1  0
 33 35  1  0
 34 36  1  0
 35 37  1  0
 35 38  1  0
 38 36  1  0
 36 39  1  0
 38 40  1  0
 41 39  1  0
 42 39  1  0
 43 41  2  0
 41 44  1  0
 45 42  2  0
 46 43  1  0
 44 47  2  0
 44 45  1  0
 48 46  2  0
 48 47  1  0
 47 49  1  0
  6 50  1  1
  7 51  1  0
  7 52  1  0
  8 53  1  0
  8 54  1  0
 10 55  1  0
 11 56  1  0
 12 57  1  0
 13 58  1  0
 16 59  1  6
 17 60  1  0
 17 61  1  0
 17 62  1  0
 19 63  1  0
 22 64  1  0
 28 65  1  0
 28 66  1  0
 32 67  1  0
 32 68  1  0
 33 69  1  0
 35 70  1  0
 36 71  1  0
 37 72  1  0
 38 73  1  0
 40 74  1  0
 42 75  1  0
 46 76  1  0
 49 77  1  0
 49 78  1  0
M  CHG  3   5  -1  23   1  26  -1
M  END
>  <EmbedRMS>  (153) 
0.0821998714303

$$$$

     RDKit          3D

 78 83  0  0  0  0  0  0  0  0999 V2000
   10.2805   43.7663   33.8249 C   0  0  0  0  0  0  0  0  0  0  0  0
   11.4111   43.5919   34.3667 O   0  0  0  0  0  0  0  0  0  0  0  0
    9.3622   42.7247   33.7343 O   0  0  0  0  0  0  0  0  0  0  0  0
    9.8904   41.2264   34.2936 P   0  0  0  0  0  0  0  0  0  0  0  0
   10.3731   41.4564   35.8832 O   0  0  0  0  0  0  0  0  0  0  0  0
    9.9459   45.0735   33.2111 C   0  0  1  0  0  0  0  0  0  0  0  0
   11.0266   46.0291   33.4705 N   0  0  0  0  0  0  0  0  0  0  0  0
    9.7536   44.8537   31.6948 C   0  0  0  0  0  0  0  0  0  0  0  0
    8.7956   45.8407   31.0844 C   0  0  0  0  0  0  0  0  0  0  0  0
    7.4088   45.6008   31.1013 C   0  0  0  0  0  0  0  0  0  0  0  0
    9.2827   46.9879   30.4403 C   0  0  0  0  0  0  0  0  0  0  0  0
    6.5284   46.5017   30.4866 C   0  0  0  0  0  0  0  0  0  0  0  0
    8.4021   47.8897   29.8316 C   0  0  0  0  0  0  0  0  0  0  0  0
    7.0137   47.6500   29.8455 C   0  0  0  0  0  0  0  0  0  0  0  0
    6.0850   48.5149   29.2436 O   0  0  0  0  0  0  0  0  0  0  0  0
    6.4047   49.6460   28.4325 C   0  0  2  0  0  0  0  0  0  0  0  0
    5.1465   50.4855   28.2081 C   0  0  0  0  0  0  0  0  0  0  0  0
    7.0261   49.2249   27.1074 C   0  0  0  0  0  0  0  0  0  0  0  0
    8.2913   49.7664   26.7698 C   0  0  0  0  0  0  0  0  0  0  0  0
    6.3657   48.3606   26.1668 C   0  0  0  0  0  0  0  0  0  0  0  0
    8.8512   49.4397   25.5421 C   0  0  0  0  0  0  0  0  0  0  0  0
    6.9782   48.0782   24.9258 C   0  0  0  0  0  0  0  0  0  0  0  0
    5.0768   47.7893   26.4288 N   0  0  0  0  0  0  0  0  0  0  0  0
   10.0615   49.8469   25.0146 O   0  0  0  0  0  0  0  0  0  0  0  0
    8.2219   48.6326   24.6585 C   0  0  0  0  0  0  0  0  0  0  0  0
    4.1155   47.8142   25.4452 O   0  0  0  0  0  0  0  0  0  0  0  0
    4.9126   47.0362   27.4091 O   0  0  0  0  0  0  0  0  0  0  0  0
   10.1998   49.2541   23.7161 C   0  0  0  0  0  0  0  0  0  0  0  0
    9.0027   48.4872   23.5280 O   0  0  0  0  0  0  0  0  0  0  0  0
    8.8129   40.1841   34.2124 O   0  0  0  0  0  0  0  0  0  0  0  0
   11.2419   40.7944   33.3695 O   0  0  0  0  0  0  0  0  0  0  0  0
   10.9186   40.6911   31.9969 C   0  0  0  0  0  0  0  0  0  0  0  0
   11.5172   39.3814   31.4407 C   0  0  0  0  0  0  0  0  0  0  0  0
   12.7492   39.0856   32.0729 O   0  0  0  0  0  0  0  0  0  0  0  0
   10.6023   38.1908   31.6665 C   0  0  0  0  0  0  0  0  0  0  0  0
   12.9319   37.6781   32.0281 C   0  0  0  0  0  0  0  0  0  0  0  0
    9.6392   38.0797   30.6452 O   0  0  0  0  0  0  0  0  0  0  0  0
   11.5715   37.0165   31.7056 C   0  0  0  0  0  0  0  0  0  0  0  0
   13.4847   37.2121   33.3235 N   0  0  0  0  0  0  0  0  0  0  0  0
   11.6187   36.3384   30.4695 O   0  0  0  0  0  0  0  0  0  0  0  0
   14.4801   36.3321   33.5724 C   0  0  0  0  0  0  0  0  0  0  0  0
   13.1137   37.6276   34.5688 C   0  0  0  0  0  0  0  0  0  0  0  0
   15.2073   35.6153   32.6738 N   0  0  0  0  0  0  0  0  0  0  0  0
   14.6759   36.2308   34.9179 C   0  0  0  0  0  0  0  0  0  0  0  0
   13.8216   37.0452   35.5781 N   0  0  0  0  0  0  0  0  0  0  0  0
   16.1640   34.7602   33.1546 C   0  0  0  0  0  0  0  0  0  0  0  0
   15.6526   35.3508   35.4129 C   0  0  0  0  0  0  0  0  0  0  0  0
   16.3794   34.6317   34.5041 N   0  0  0  0  0  0  0  0  0  0  0  0
   15.8999   35.1935   36.8088 N   0  0  0  0  0  0  0  0  0  0  0  0
    8.9995   45.4380   33.6721 H   0  0  0  0  0  0  0  0  0  0  0  0
   10.7762   46.9368   33.0156 H   0  0  0  0  0  0  0  0  0  0  0  0
   11.0503   46.2276   34.4979 H   0  0  0  0  0  0  0  0  0  0  0  0
   10.7407   44.9069   31.1833 H   0  0  0  0  0  0  0  0  0  0  0  0
    9.3638   43.8350   31.4713 H   0  0  0  0  0  0  0  0  0  0  0  0
    7.0130   44.7167   31.5859 H   0  0  0  0  0  0  0  0  0  0  0  0
   10.3468   47.1879   30.4095 H   0  0  0  0  0  0  0  0  0  0  0  0
    5.4641   46.3041   30.5053 H   0  0  0  0  0  0  0  0  0  0  0  0
    8.8148   48.7681   29.3596 H   0  0  0  0  0  0  0  0  0  0  0  0
    7.1055   50.2968   29.0016 H   0  0  0  0  0  0  0  0  0  0  0  0
    4.7766   50.8691   29.1827 H   0  0  0  0  0  0  0  0  0  0  0  0
    5.3764   51.3541   27.5543 H   0  0  0  0  0  0  0  0  0  0  0  0
    4.3366   49.8870   27.7446 H   0  0  0  0  0  0  0  0  0  0  0  0
    8.8215   50.4328   27.4383 H   0  0  0  0  0  0  0  0  0  0  0  0
    6.5011   47.4351   24.1973 H   0  0  0  0  0  0  0  0  0  0  0  0
   10.2750   50.0438   22.9394 H   0  0  0  0  0  0  0  0  0  0  0  0
   11.0887   48.5895   23.6900 H   0  0  0  0  0  0  0  0  0  0  0  0
    9.8298   40.7409   31.7611 H   0  0  0  0  0  0  0  0  0  0  0  0
   11.3967   41.5459   31.4726 H   0  0  0  0  0  0  0  0  0  0  0  0
   11.6975   39.5066   30.3481 H   0  0  0  0  0  0  0  0  0  0  0  0
   10.1076   38.2647   32.6645 H   0  0  0  0  0  0  0  0  0  0  0  0
   13.6621   37.4468   31.2209 H   0  0  0  0  0  0  0  0  0  0  0  0
    8.8974   38.6942   30.8832 H   0  0  0  0  0  0  0  0  0  0  0  0
   11.2806   36.3073   32.5170 H   0  0  0  0  0  0  0  0  0  0  0  0
   10.8493   35.7110   30.4586 H   0  0  0  0  0  0  0  0  0  0  0  0
   12.3290   38.3524   34.7444 H   0  0  0  0  0  0  0  0  0  0  0  0
   16.7559   34.1780   32.4619 H   0  0  0  0  0  0  0  0  0  0  0  0
   15.3531   35.7362   37.5137 H   0  0  0  0  0  0  0  0  0  0  0  0
   16.6344   34.5301   37.1414 H   0  0  0  0  0  0  0  0  0  0  0  0
  1  2  2  0
  1  3  1  0
  3  4  1  0
  4  5  1  0
  6  1  1  0
  7  6  1  0
  6  8  1  0
  8  9  1  0
  9 10  2  0
 11  9  1  0
 10 12  1  0
 13 11  2  0
 12 14  2  0
 14 13  1  0
 14 15  1  0
 15 16  1  0
 16 17  1  0
 16 18  1  0
 18 19  2  0
 20 18  1  0
 19 21  1  0
 22 20  2  0
 20 23  1  0
 21 24  1  0
 21 25  2  0
 25 22  1  0
 23 26  1  0
 23 27  2  0
 24 28  1  0
 25 29  1  0
 28 29  1  0
  4 30  2  0
  4 31  1  0
 32 31  1  0
 32 33  1  0
 33 34  1  0
 33 35  1  0
 34 36  1  0
 35 37  1  0
 35 38  1  0
 38 36  1  0
 36 39  1  0
 38 40  1  0
 41 39  1  0
 42 39  1  0
 43 41  2  0
 41 44  1  0
 45 42  2  0
 46 43  1  0
 44 47  2  0
 44 45  1  0
 48 46  2  0
 48 47  1  0
 47 49  1  0
  6 50  1  1
  7 51  1  0
  7 52  1  0
  8 53  1  0
  8 54  1  0
 10 55  1  0
 11 56  1  0
 12 57  1  0
 13 58  1  0
 16 59  1  1
 17 60  1  0
 17 61  1  0
 17 62  1  0
 19 63  1  0
 22 64  1  0
 28 65  1  0
 28 66  1  0
 32 67  1  0
 32 68  1  0
 33 69  1  0
 35 70  1  0
 36 71  1  0
 37 72  1  0
 38 73  1  0
 40 74  1  0
 42 75  1  0
 46 76  1  0
 49 77  1  0
 49 78  1  0
M  CHG  3   5  -1  23   1  26  -1
M  END
>  <EmbedRMS>  (154) 
0.0827811991964

$$$$

     RDKit          3D

 78 83  0  0  0  0  0  0  0  0999 V2000
   10.2835   43.7662   33.8256 C   0  0  0  0  0  0  0  0  0  0  0  0
   11.4102   43.5930   34.3752 O   0  0  0  0  0  0  0  0  0  0  0  0
    9.3638   42.7255   33.7348 O   0  0  0  0  0  0  0  0  0  0  0  0
    9.8906   41.2266   34.2933 P   0  0  0  0  0  0  0  0  0  0  0  0
   10.3743   41.4557   35.8827 O   0  0  0  0  0  0  0  0  0  0  0  0
    9.9547   45.0696   33.2037 C   0  0  1  0  0  0  0  0  0  0  0  0
   11.0273   46.0323   33.4761 N   0  0  0  0  0  0  0  0  0  0  0  0
    9.7471   44.8485   31.6877 C   0  0  0  0  0  0  0  0  0  0  0  0
    8.7925   45.8412   31.0848 C   0  0  0  0  0  0  0  0  0  0  0  0
    7.4060   45.6008   31.0988 C   0  0  0  0  0  0  0  0  0  0  0  0
    9.2817   46.9876   30.4415 C   0  0  0  0  0  0  0  0  0  0  0  0
    6.5247   46.5004   30.4837 C   0  0  0  0  0  0  0  0  0  0  0  0
    8.4004   47.8873   29.8313 C   0  0  0  0  0  0  0  0  0  0  0  0
    7.0182   47.6580   29.8482 C   0  0  0  0  0  0  0  0  0  0  0  0
    6.1830   48.5989   29.2239 O   0  0  0  0  0  0  0  0  0  0  0  0
    4.7555   48.6036   29.2682 C   0  0  2  0  0  0  0  0  0  0  0  0
    4.2160   49.6062   28.2474 C   0  0  0  0  0  0  0  0  0  0  0  0
    4.2415   48.9156   30.6675 C   0  0  0  0  0  0  0  0  0  0  0  0
    3.3540   47.9877   31.2668 C   0  0  0  0  0  0  0  0  0  0  0  0
    4.5652   50.1253   31.3744 C   0  0  0  0  0  0  0  0  0  0  0  0
    2.8303   48.2782   32.5194 C   0  0  0  0  0  0  0  0  0  0  0  0
    3.9874   50.3730   32.6393 C   0  0  0  0  0  0  0  0  0  0  0  0
    5.4404   51.1199   30.8259 N   0  0  0  0  0  0  0  0  0  0  0  0
    1.9593   47.5240   33.2820 O   0  0  0  0  0  0  0  0  0  0  0  0
    3.1324   49.4208   33.1759 C   0  0  0  0  0  0  0  0  0  0  0  0
    5.0830   52.4463   30.8974 O   0  0  0  0  0  0  0  0  0  0  0  0
    6.6212   50.8311   30.5475 O   0  0  0  0  0  0  0  0  0  0  0  0
    1.7006   48.2410   34.4968 C   0  0  0  0  0  0  0  0  0  0  0  0
    2.4690   49.4469   34.3876 O   0  0  0  0  0  0  0  0  0  0  0  0
    8.8122   40.1851   34.2127 O   0  0  0  0  0  0  0  0  0  0  0  0
   11.2406   40.7945   33.3670 O   0  0  0  0  0  0  0  0  0  0  0  0
   10.9134   40.6866   31.9954 C   0  0  0  0  0  0  0  0  0  0  0  0
   11.5167   39.3787   31.4404 C   0  0  0  0  0  0  0  0  0  0  0  0
   12.7486   39.0849   32.0735 O   0  0  0  0  0  0  0  0  0  0  0  0
   10.6039   38.1884   31.6669 C   0  0  0  0  0  0  0  0  0  0  0  0
   12.9329   37.6776   32.0284 C   0  0  0  0  0  0  0  0  0  0  0  0
    9.6374   38.0938   30.6485 O   0  0  0  0  0  0  0  0  0  0  0  0
   11.5737   37.0141   31.7055 C   0  0  0  0  0  0  0  0  0  0  0  0
   13.4853   37.2120   33.3238 N   0  0  0  0  0  0  0  0  0  0  0  0
   11.6210   36.3379   30.4683 O   0  0  0  0  0  0  0  0  0  0  0  0
   14.4804   36.3319   33.5726 C   0  0  0  0  0  0  0  0  0  0  0  0
   13.1141   37.6275   34.5689 C   0  0  0  0  0  0  0  0  0  0  0  0
   15.2075   35.6152   32.6740 N   0  0  0  0  0  0  0  0  0  0  0  0
   14.6761   36.2306   34.9181 C   0  0  0  0  0  0  0  0  0  0  0  0
   13.8218   37.0451   35.5783 N   0  0  0  0  0  0  0  0  0  0  0  0
   16.1642   34.7600   33.1548 C   0  0  0  0  0  0  0  0  0  0  0  0
   15.6528   35.3506   35.4131 C   0  0  0  0  0  0  0  0  0  0  0  0
   16.3795   34.6315   34.5043 N   0  0  0  0  0  0  0  0  0  0  0  0
   15.9001   35.1933   36.8090 N   0  0  0  0  0  0  0  0  0  0  0  0
    9.0120   45.4317   33.6714 H   0  0  0  0  0  0  0  0  0  0  0  0
   10.7259   46.9689   33.1217 H   0  0  0  0  0  0  0  0  0  0  0  0
   11.8907   45.7660   32.9477 H   0  0  0  0  0  0  0  0  0  0  0  0
    9.3425   43.8333   31.4758 H   0  0  0  0  0  0  0  0  0  0  0  0
   10.7236   44.8826   31.1559 H   0  0  0  0  0  0  0  0  0  0  0  0
    7.0105   44.7140   31.5787 H   0  0  0  0  0  0  0  0  0  0  0  0
   10.3460   47.1859   30.4094 H   0  0  0  0  0  0  0  0  0  0  0  0
    5.4690   46.2776   30.5033 H   0  0  0  0  0  0  0  0  0  0  0  0
    8.7937   48.7698   29.3427 H   0  0  0  0  0  0  0  0  0  0  0  0
    4.3928   47.6061   28.9338 H   0  0  0  0  0  0  0  0  0  0  0  0
    3.1063   49.6399   28.2922 H   0  0  0  0  0  0  0  0  0  0  0  0
    4.5158   49.2934   27.2247 H   0  0  0  0  0  0  0  0  0  0  0  0
    4.6173   50.6240   28.4270 H   0  0  0  0  0  0  0  0  0  0  0  0
    3.0690   47.0697   30.7686 H   0  0  0  0  0  0  0  0  0  0  0  0
    4.2096   51.2775   33.1909 H   0  0  0  0  0  0  0  0  0  0  0  0
    2.0399   47.6484   35.3722 H   0  0  0  0  0  0  0  0  0  0  0  0
    0.6198   48.4812   34.5782 H   0  0  0  0  0  0  0  0  0  0  0  0
    9.8225   40.7225   31.7631 H   0  0  0  0  0  0  0  0  0  0  0  0
   11.3828   41.5438   31.4669 H   0  0  0  0  0  0  0  0  0  0  0  0
   11.6978   39.5037   30.3478 H   0  0  0  0  0  0  0  0  0  0  0  0
   10.1084   38.2787   32.6627 H   0  0  0  0  0  0  0  0  0  0  0  0
   13.6638   37.4472   31.2214 H   0  0  0  0  0  0  0  0  0  0  0  0
    8.9763   37.4191   30.9532 H   0  0  0  0  0  0  0  0  0  0  0  0
   11.2821   36.3054   32.5172 H   0  0  0  0  0  0  0  0  0  0  0  0
   10.8658   35.6935   30.4652 H   0  0  0  0  0  0  0  0  0  0  0  0
   12.3293   38.3523   34.7445 H   0  0  0  0  0  0  0  0  0  0  0  0
   16.7561   34.1778   32.4621 H   0  0  0  0  0  0  0  0  0  0  0  0
   16.6345   34.5300   37.1416 H   0  0  0  0  0  0  0  0  0  0  0  0
   15.3533   35.7361   37.5138 H   0  0  0  0  0  0  0  0  0  0  0  0
  1  2  2  0
  1  3  1  0
  3  4  1  0
  4  5  1  0
  6  1  1  0
  7  6  1  0
  6  8  1  0
  8  9  1  0
  9 10  2  0
 11  9  1  0
 10 12  1  0
 13 11  2  0
 12 14  2  0
 14 13  1  0
 14 15  1  0
 15 16  1  0
 16 17  1  0
 16 18  1  0
 18 19  2  0
 20 18  1  0
 19 21  1  0
 22 20  2  0
 20 23  1  0
 21 24  1  0
 21 25  2  0
 25 22  1  0
 23 26  1  0
 23 27  2  0
 24 28  1  0
 25 29  1  0
 28 29  1  0
  4 30  2  0
  4 31  1  0
 32 31  1  0
 32 33  1  0
 33 34  1  0
 33 35  1  0
 34 36  1  0
 35 37  1  0
 35 38  1  0
 38 36  1  0
 36 39  1  0
 38 40  1  0
 41 39  1  0
 42 39  1  0
 43 41  2  0
 41 44  1  0
 45 42  2  0
 46 43  1  0
 44 47  2  0
 44 45  1  0
 48 46  2  0
 48 47  1  0
 47 49  1  0
  6 50  1  1
  7 51  1  0
  7 52  1  0
  8 53  1  0
  8 54  1  0
 10 55  1  0
 11 56  1  0
 12 57  1  0
 13 58  1  0
 16 59  1  6
 17 60  1  0
 17 61  1  0
 17 62  1  0
 19 63  1  0
 22 64  1  0
 28 65  1  0
 28 66  1  0
 32 67  1  0
 32 68  1  0
 33 69  1  0
 35 70  1  0
 36 71  1  0
 37 72  1  0
 38 73  1  0
 40 74  1  0
 42 75  1  0
 46 76  1  0
 49 77  1  0
 49 78  1  0
M  CHG  3   5  -1  23   1  26  -1
M  END
>  <EmbedRMS>  (155) 
0.0825443709343

$$$$

     RDKit          3D

 78 83  0  0  0  0  0  0  0  0999 V2000
   10.2839   43.7627   33.8278 C   0  0  0  0  0  0  0  0  0  0  0  0
   11.4104   43.5864   34.3767 O   0  0  0  0  0  0  0  0  0  0  0  0
    9.3631   42.7236   33.7357 O   0  0  0  0  0  0  0  0  0  0  0  0
    9.8895   41.2250   34.2948 P   0  0  0  0  0  0  0  0  0  0  0  0
   10.3720   41.4547   35.8844 O   0  0  0  0  0  0  0  0  0  0  0  0
    9.9548   45.0699   33.2064 C   0  0  1  0  0  0  0  0  0  0  0  0
   11.0197   46.0481   33.4568 N   0  0  0  0  0  0  0  0  0  0  0  0
    9.7502   44.8506   31.6925 C   0  0  0  0  0  0  0  0  0  0  0  0
    8.7942   45.8412   31.0869 C   0  0  0  0  0  0  0  0  0  0  0  0
    7.4080   45.6008   31.0998 C   0  0  0  0  0  0  0  0  0  0  0  0
    9.2826   46.9883   30.4451 C   0  0  0  0  0  0  0  0  0  0  0  0
    6.5293   46.5021   30.4842 C   0  0  0  0  0  0  0  0  0  0  0  0
    8.4035   47.8894   29.8328 C   0  0  0  0  0  0  0  0  0  0  0  0
    7.0134   47.6534   29.8469 C   0  0  0  0  0  0  0  0  0  0  0  0
    6.0720   48.5201   29.2614 O   0  0  0  0  0  0  0  0  0  0  0  0
    6.3258   49.7371   28.5466 C   0  0  2  0  0  0  0  0  0  0  0  0
    6.9372   49.4231   27.1718 C   0  0  0  0  0  0  0  0  0  0  0  0
    7.0729   50.7544   29.4113 C   0  0  0  0  0  0  0  0  0  0  0  0
    8.2341   51.4139   28.9225 C   0  0  0  0  0  0  0  0  0  0  0  0
    6.6273   51.0423   30.7487 C   0  0  0  0  0  0  0  0  0  0  0  0
    8.9180   52.2760   29.7686 C   0  0  0  0  0  0  0  0  0  0  0  0
    7.3769   51.9180   31.5659 C   0  0  0  0  0  0  0  0  0  0  0  0
    5.4362   50.4521   31.2968 N   0  0  0  0  0  0  0  0  0  0  0  0
   10.0650   53.0015   29.5091 O   0  0  0  0  0  0  0  0  0  0  0  0
    8.5110   52.5134   31.0350 C   0  0  0  0  0  0  0  0  0  0  0  0
    5.3799   50.1431   32.6364 O   0  0  0  0  0  0  0  0  0  0  0  0
    4.3872   50.3977   30.6234 O   0  0  0  0  0  0  0  0  0  0  0  0
   10.3975   53.7417   30.6914 C   0  0  0  0  0  0  0  0  0  0  0  0
    9.3789   53.4011   31.6414 O   0  0  0  0  0  0  0  0  0  0  0  0
    8.8117   40.1832   34.2125 O   0  0  0  0  0  0  0  0  0  0  0  0
   11.2411   40.7939   33.3710 O   0  0  0  0  0  0  0  0  0  0  0  0
   10.9179   40.6920   31.9985 C   0  0  0  0  0  0  0  0  0  0  0  0
   11.5175   39.3837   31.4422 C   0  0  0  0  0  0  0  0  0  0  0  0
   12.7508   39.0887   32.0751 O   0  0  0  0  0  0  0  0  0  0  0  0
   10.6028   38.1916   31.6658 C   0  0  0  0  0  0  0  0  0  0  0  0
   12.9385   37.6818   32.0278 C   0  0  0  0  0  0  0  0  0  0  0  0
    9.6371   38.0805   30.6470 O   0  0  0  0  0  0  0  0  0  0  0  0
   11.5780   37.0215   31.6934 C   0  0  0  0  0  0  0  0  0  0  0  0
   13.4844   37.2119   33.3242 N   0  0  0  0  0  0  0  0  0  0  0  0
   11.6095   36.3201   30.4678 O   0  0  0  0  0  0  0  0  0  0  0  0
   14.4797   36.3318   33.5730 C   0  0  0  0  0  0  0  0  0  0  0  0
   13.1135   37.6278   34.5691 C   0  0  0  0  0  0  0  0  0  0  0  0
   15.2073   35.6155   32.6742 N   0  0  0  0  0  0  0  0  0  0  0  0
   14.6754   36.2305   34.9184 C   0  0  0  0  0  0  0  0  0  0  0  0
   13.8213   37.0452   35.5785 N   0  0  0  0  0  0  0  0  0  0  0  0
   16.1640   34.7604   33.1549 C   0  0  0  0  0  0  0  0  0  0  0  0
   15.6524   35.3507   35.4132 C   0  0  0  0  0  0  0  0  0  0  0  0
   16.3794   34.6318   34.5044 N   0  0  0  0  0  0  0  0  0  0  0  0
   15.9000   35.1934   36.8091 N   0  0  0  0  0  0  0  0  0  0  0  0
    9.0098   45.4349   33.6671 H   0  0  0  0  0  0  0  0  0  0  0  0
   11.9347   45.6933   33.0925 H   0  0  0  0  0  0  0  0  0  0  0  0
   11.1133   46.1995   34.4881 H   0  0  0  0  0  0  0  0  0  0  0  0
    9.3510   43.8340   31.4765 H   0  0  0  0  0  0  0  0  0  0  0  0
   10.7305   44.8920   31.1676 H   0  0  0  0  0  0  0  0  0  0  0  0
    7.0110   44.7160   31.5821 H   0  0  0  0  0  0  0  0  0  0  0  0
   10.3469   47.1877   30.4175 H   0  0  0  0  0  0  0  0  0  0  0  0
    5.4648   46.3055   30.5047 H   0  0  0  0  0  0  0  0  0  0  0  0
    8.8253   48.7594   29.3584 H   0  0  0  0  0  0  0  0  0  0  0  0
    5.3366   50.1887   28.3214 H   0  0  0  0  0  0  0  0  0  0  0  0
    6.9514   50.3360   26.5390 H   0  0  0  0  0  0  0  0  0  0  0  0
    7.9658   49.0204   27.2580 H   0  0  0  0  0  0  0  0  0  0  0  0
    6.3130   48.6639   26.6547 H   0  0  0  0  0  0  0  0  0  0  0  0
    8.6193   51.2567   27.9258 H   0  0  0  0  0  0  0  0  0  0  0  0
    7.0710   52.1444   32.5792 H   0  0  0  0  0  0  0  0  0  0  0  0
   10.3763   54.8315   30.4810 H   0  0  0  0  0  0  0  0  0  0  0  0
   11.3940   53.4324   31.0707 H   0  0  0  0  0  0  0  0  0  0  0  0
    9.8292   40.7410   31.7624 H   0  0  0  0  0  0  0  0  0  0  0  0
   11.3955   41.5477   31.4751 H   0  0  0  0  0  0  0  0  0  0  0  0
   11.6981   39.5116   30.3500 H   0  0  0  0  0  0  0  0  0  0  0  0
   10.1117   38.2603   32.6660 H   0  0  0  0  0  0  0  0  0  0  0  0
   13.6767   37.4555   31.2267 H   0  0  0  0  0  0  0  0  0  0  0  0
    8.8961   38.6951   30.8872 H   0  0  0  0  0  0  0  0  0  0  0  0
   11.2792   36.3072   32.4922 H   0  0  0  0  0  0  0  0  0  0  0  0
   11.8828   36.9598   29.7588 H   0  0  0  0  0  0  0  0  0  0  0  0
   12.3299   38.3538   34.7446 H   0  0  0  0  0  0  0  0  0  0  0  0
   16.7562   34.1785   32.4621 H   0  0  0  0  0  0  0  0  0  0  0  0
   16.6347   34.5303   37.1416 H   0  0  0  0  0  0  0  0  0  0  0  0
   15.3531   35.7360   37.5140 H   0  0  0  0  0  0  0  0  0  0  0  0
  1  2  2  0
  1  3  1  0
  3  4  1  0
  4  5  1  0
  6  1  1  0
  7  6  1  0
  6  8  1  0
  8  9  1  0
  9 10  2  0
 11  9  1  0
 10 12  1  0
 13 11  2  0
 12 14  2  0
 14 13  1  0
 14 15  1  0
 15 16  1  0
 16 17  1  0
 16 18  1  0
 18 19  2  0
 20 18  1  0
 19 21  1  0
 22 20  2  0
 20 23  1  0
 21 24  1  0
 21 25  2  0
 25 22  1  0
 23 26  1  0
 23 27  2  0
 24 28  1  0
 25 29  1  0
 28 29  1  0
  4 30  2  0
  4 31  1  0
 32 31  1  0
 32 33  1  0
 33 34  1  0
 33 35  1  0
 34 36  1  0
 35 37  1  0
 35 38  1  0
 38 36  1  0
 36 39  1  0
 38 40  1  0
 41 39  1  0
 42 39  1  0
 43 41  2  0
 41 44  1  0
 45 42  2  0
 46 43  1  0
 44 47  2  0
 44 45  1  0
 48 46  2  0
 48 47  1  0
 47 49  1  0
  6 50  1  1
  7 51  1  0
  7 52  1  0
  8 53  1  0
  8 54  1  0
 10 55  1  0
 11 56  1  0
 12 57  1  0
 13 58  1  0
 16 59  1  6
 17 60  1  0
 17 61  1  0
 17 62  1  0
 19 63  1  0
 22 64  1  0
 28 65  1  0
 28 66  1  0
 32 67  1  0
 32 68  1  0
 33 69  1  0
 35 70  1  0
 36 71  1  0
 37 72  1  0
 38 73  1  0
 40 74  1  0
 42 75  1  0
 46 76  1  0
 49 77  1  0
 49 78  1  0
M  CHG  3   5  -1  23   1  26  -1
M  END
>  <EmbedRMS>  (156) 
0.082870547466

$$$$

     RDKit          3D

 78 83  0  0  0  0  0  0  0  0999 V2000
   10.2836   43.7661   33.8256 C   0  0  0  0  0  0  0  0  0  0  0  0
   11.4103   43.5928   34.3753 O   0  0  0  0  0  0  0  0  0  0  0  0
    9.3638   42.7255   33.7349 O   0  0  0  0  0  0  0  0  0  0  0  0
    9.8903   41.2267   34.2942 P   0  0  0  0  0  0  0  0  0  0  0  0
   10.3735   41.4561   35.8837 O   0  0  0  0  0  0  0  0  0  0  0  0
    9.9549   45.0695   33.2038 C   0  0  1  0  0  0  0  0  0  0  0  0
   11.0275   46.0322   33.4761 N   0  0  0  0  0  0  0  0  0  0  0  0
    9.7471   44.8486   31.6879 C   0  0  0  0  0  0  0  0  0  0  0  0
    8.7925   45.8417   31.0857 C   0  0  0  0  0  0  0  0  0  0  0  0
    7.4063   45.6008   31.0985 C   0  0  0  0  0  0  0  0  0  0  0  0
    9.2815   46.9875   30.4418 C   0  0  0  0  0  0  0  0  0  0  0  0
    6.5252   46.5002   30.4833 C   0  0  0  0  0  0  0  0  0  0  0  0
    8.4002   47.8863   29.8304 C   0  0  0  0  0  0  0  0  0  0  0  0
    7.0174   47.6593   29.8482 C   0  0  0  0  0  0  0  0  0  0  0  0
    6.1870   48.6009   29.2088 O   0  0  0  0  0  0  0  0  0  0  0  0
    4.7619   48.7425   29.3349 C   0  0  2  0  0  0  0  0  0  0  0  0
    4.3585   48.8442   30.8204 C   0  0  0  0  0  0  0  0  0  0  0  0
    3.9767   47.6801   28.5603 C   0  0  0  0  0  0  0  0  0  0  0  0
    4.6649   46.6852   27.8149 C   0  0  0  0  0  0  0  0  0  0  0  0
    2.5381   47.6685   28.5532 C   0  0  0  0  0  0  0  0  0  0  0  0
    3.9286   45.6882   27.1895 C   0  0  0  0  0  0  0  0  0  0  0  0
    1.8445   46.6166   27.9143 C   0  0  0  0  0  0  0  0  0  0  0  0
    1.7689   48.7235   29.1482 N   0  0  0  0  0  0  0  0  0  0  0  0
    4.3904   44.6210   26.4431 O   0  0  0  0  0  0  0  0  0  0  0  0
    2.5793   45.6490   27.2461 C   0  0  0  0  0  0  0  0  0  0  0  0
    0.5967   48.4267   29.8045 O   0  0  0  0  0  0  0  0  0  0  0  0
    2.0148   49.9134   28.8634 O   0  0  0  0  0  0  0  0  0  0  0  0
    3.2547   43.8622   26.0065 C   0  0  0  0  0  0  0  0  0  0  0  0
    2.1180   44.5544   26.5404 O   0  0  0  0  0  0  0  0  0  0  0  0
    8.8121   40.1850   34.2130 O   0  0  0  0  0  0  0  0  0  0  0  0
   11.2407   40.7939   33.3693 O   0  0  0  0  0  0  0  0  0  0  0  0
   10.9151   40.6905   31.9974 C   0  0  0  0  0  0  0  0  0  0  0  0
   11.5252   39.3886   31.4375 C   0  0  0  0  0  0  0  0  0  0  0  0
   12.7500   39.0874   32.0799 O   0  0  0  0  0  0  0  0  0  0  0  0
   10.6092   38.1926   31.6470 C   0  0  0  0  0  0  0  0  0  0  0  0
   12.9332   37.6792   32.0294 C   0  0  0  0  0  0  0  0  0  0  0  0
    9.6121   38.0895   30.6543 O   0  0  0  0  0  0  0  0  0  0  0  0
   11.5743   37.0145   31.7024 C   0  0  0  0  0  0  0  0  0  0  0  0
   13.4844   37.2108   33.3241 N   0  0  0  0  0  0  0  0  0  0  0  0
   11.6297   36.3239   30.4740 O   0  0  0  0  0  0  0  0  0  0  0  0
   14.4802   36.3313   33.5727 C   0  0  0  0  0  0  0  0  0  0  0  0
   13.1139   37.6267   34.5692 C   0  0  0  0  0  0  0  0  0  0  0  0
   15.2075   35.6149   32.6739 N   0  0  0  0  0  0  0  0  0  0  0  0
   14.6761   36.2303   34.9181 C   0  0  0  0  0  0  0  0  0  0  0  0
   13.8220   37.0447   35.5785 N   0  0  0  0  0  0  0  0  0  0  0  0
   16.1643   34.7600   33.1547 C   0  0  0  0  0  0  0  0  0  0  0  0
   15.6529   35.3505   35.4130 C   0  0  0  0  0  0  0  0  0  0  0  0
   16.3798   34.6315   34.5042 N   0  0  0  0  0  0  0  0  0  0  0  0
   15.9003   35.1932   36.8090 N   0  0  0  0  0  0  0  0  0  0  0  0
    9.0123   45.4316   33.6717 H   0  0  0  0  0  0  0  0  0  0  0  0
   10.7262   46.9688   33.1217 H   0  0  0  0  0  0  0  0  0  0  0  0
   11.8909   45.7658   32.9477 H   0  0  0  0  0  0  0  0  0  0  0  0
   10.7234   44.8828   31.1559 H   0  0  0  0  0  0  0  0  0  0  0  0
    9.3424   43.8334   31.4759 H   0  0  0  0  0  0  0  0  0  0  0  0
    7.0113   44.7107   31.5727 H   0  0  0  0  0  0  0  0  0  0  0  0
   10.3459   47.1853   30.4088 H   0  0  0  0  0  0  0  0  0  0  0  0
    5.4733   46.2623   30.4826 H   0  0  0  0  0  0  0  0  0  0  0  0
    8.7945   48.7666   29.3387 H   0  0  0  0  0  0  0  0  0  0  0  0
    4.5217   49.7194   28.8662 H   0  0  0  0  0  0  0  0  0  0  0  0
    4.0872   47.8560   31.2438 H   0  0  0  0  0  0  0  0  0  0  0  0
    5.1909   49.2742   31.4169 H   0  0  0  0  0  0  0  0  0  0  0  0
    3.4891   49.5194   30.9495 H   0  0  0  0  0  0  0  0  0  0  0  0
    5.7403   46.6710   27.7182 H   0  0  0  0  0  0  0  0  0  0  0  0
    0.7628   46.5779   27.9063 H   0  0  0  0  0  0  0  0  0  0  0  0
    3.2071   43.8456   24.8975 H   0  0  0  0  0  0  0  0  0  0  0  0
    3.3018   42.8308   26.4147 H   0  0  0  0  0  0  0  0  0  0  0  0
    9.8243   40.7216   31.7643 H   0  0  0  0  0  0  0  0  0  0  0  0
   11.3802   41.5529   31.4733 H   0  0  0  0  0  0  0  0  0  0  0  0
   11.7265   39.5311   30.3513 H   0  0  0  0  0  0  0  0  0  0  0  0
   10.1110   38.2747   32.6387 H   0  0  0  0  0  0  0  0  0  0  0  0
   13.6652   37.4519   31.2226 H   0  0  0  0  0  0  0  0  0  0  0  0
   10.0511   38.1143   29.7645 H   0  0  0  0  0  0  0  0  0  0  0  0
   11.2762   36.3141   32.5189 H   0  0  0  0  0  0  0  0  0  0  0  0
   10.8593   35.6978   30.4640 H   0  0  0  0  0  0  0  0  0  0  0  0
   12.3295   38.3518   34.7449 H   0  0  0  0  0  0  0  0  0  0  0  0
   16.7564   34.1779   32.4620 H   0  0  0  0  0  0  0  0  0  0  0  0
   16.6349   34.5300   37.1415 H   0  0  0  0  0  0  0  0  0  0  0  0
   15.3534   35.7359   37.5138 H   0  0  0  0  0  0  0  0  0  0  0  0
  1  2  2  0
  1  3  1  0
  3  4  1  0
  4  5  1  0
  6  1  1  0
  7  6  1  0
  6  8  1  0
  8  9  1  0
  9 10  2  0
 11  9  1  0
 10 12  1  0
 13 11  2  0
 12 14  2  0
 14 13  1  0
 14 15  1  0
 15 16  1  0
 16 17  1  0
 16 18  1  0
 18 19  2  0
 20 18  1  0
 19 21  1  0
 22 20  2  0
 20 23  1  0
 21 24  1  0
 21 25  2  0
 25 22  1  0
 23 26  1  0
 23 27  2  0
 24 28  1  0
 25 29  1  0
 28 29  1  0
  4 30  2  0
  4 31  1  0
 32 31  1  0
 32 33  1  0
 33 34  1  0
 33 35  1  0
 34 36  1  0
 35 37  1  0
 35 38  1  0
 38 36  1  0
 36 39  1  0
 38 40  1  0
 41 39  1  0
 42 39  1  0
 43 41  2  0
 41 44  1  0
 45 42  2  0
 46 43  1  0
 44 47  2  0
 44 45  1  0
 48 46  2  0
 48 47  1  0
 47 49  1  0
  6 50  1  1
  7 51  1  0
  7 52  1  0
  8 53  1  0
  8 54  1  0
 10 55  1  0
 11 56  1  0
 12 57  1  0
 13 58  1  0
 16 59  1  6
 17 60  1  0
 17 61  1  0
 17 62  1  0
 19 63  1  0
 22 64  1  0
 28 65  1  0
 28 66  1  0
 32 67  1  0
 32 68  1  0
 33 69  1  0
 35 70  1  0
 36 71  1  0
 37 72  1  0
 38 73  1  0
 40 74  1  0
 42 75  1  0
 46 76  1  0
 49 77  1  0
 49 78  1  0
M  CHG  3   5  -1  23   1  26  -1
M  END
>  <EmbedRMS>  (157) 
0.0817841480564

$$$$

     RDKit          3D

 78 83  0  0  0  0  0  0  0  0999 V2000
   10.2836   43.7661   33.8256 C   0  0  0  0  0  0  0  0  0  0  0  0
   11.4103   43.5930   34.3753 O   0  0  0  0  0  0  0  0  0  0  0  0
    9.3640   42.7252   33.7347 O   0  0  0  0  0  0  0  0  0  0  0  0
    9.8908   41.2264   34.2939 P   0  0  0  0  0  0  0  0  0  0  0  0
   10.3732   41.4559   35.8835 O   0  0  0  0  0  0  0  0  0  0  0  0
    9.9547   45.0694   33.2035 C   0  0  1  0  0  0  0  0  0  0  0  0
   11.0273   46.0321   33.4756 N   0  0  0  0  0  0  0  0  0  0  0  0
    9.7465   44.8480   31.6876 C   0  0  0  0  0  0  0  0  0  0  0  0
    8.7923   45.8408   31.0845 C   0  0  0  0  0  0  0  0  0  0  0  0
    7.4055   45.6018   31.0995 C   0  0  0  0  0  0  0  0  0  0  0  0
    9.2823   46.9879   30.4426 C   0  0  0  0  0  0  0  0  0  0  0  0
    6.5267   46.5035   30.4845 C   0  0  0  0  0  0  0  0  0  0  0  0
    8.4034   47.8902   29.8321 C   0  0  0  0  0  0  0  0  0  0  0  0
    7.0141   47.6519   29.8461 C   0  0  0  0  0  0  0  0  0  0  0  0
    6.0890   48.5160   29.2369 O   0  0  0  0  0  0  0  0  0  0  0  0
    6.4216   49.6901   28.4926 C   0  0  2  0  0  0  0  0  0  0  0  0
    5.1604   50.5110   28.2263 C   0  0  0  0  0  0  0  0  0  0  0  0
    7.1340   49.3665   27.1872 C   0  0  0  0  0  0  0  0  0  0  0  0
    8.0824   50.3083   26.7194 C   0  0  0  0  0  0  0  0  0  0  0  0
    6.9291   48.1521   26.4437 C   0  0  0  0  0  0  0  0  0  0  0  0
    8.8035   50.0145   25.5702 C   0  0  0  0  0  0  0  0  0  0  0  0
    7.7056   47.9031   25.2885 C   0  0  0  0  0  0  0  0  0  0  0  0
    5.9614   47.1673   26.8391 N   0  0  0  0  0  0  0  0  0  0  0  0
    9.7738   50.7756   24.9470 O   0  0  0  0  0  0  0  0  0  0  0  0
    8.6261   48.8612   24.8874 C   0  0  0  0  0  0  0  0  0  0  0  0
    4.6612   47.5333   27.0946 O   0  0  0  0  0  0  0  0  0  0  0  0
    6.2373   45.9532   26.7480 O   0  0  0  0  0  0  0  0  0  0  0  0
   10.2335   50.0511   23.7979 C   0  0  0  0  0  0  0  0  0  0  0  0
    9.4744   48.8344   23.7972 O   0  0  0  0  0  0  0  0  0  0  0  0
    8.8127   40.1847   34.2122 O   0  0  0  0  0  0  0  0  0  0  0  0
   11.2421   40.7941   33.3697 O   0  0  0  0  0  0  0  0  0  0  0  0
   10.9187   40.6911   31.9971 C   0  0  0  0  0  0  0  0  0  0  0  0
   11.5172   39.3815   31.4407 C   0  0  0  0  0  0  0  0  0  0  0  0
   12.7493   39.0856   32.0728 O   0  0  0  0  0  0  0  0  0  0  0  0
   10.6023   38.1908   31.6665 C   0  0  0  0  0  0  0  0  0  0  0  0
   12.9319   37.6781   32.0281 C   0  0  0  0  0  0  0  0  0  0  0  0
    9.6392   38.0798   30.6452 O   0  0  0  0  0  0  0  0  0  0  0  0
   11.5715   37.0166   31.7056 C   0  0  0  0  0  0  0  0  0  0  0  0
   13.4846   37.2121   33.3235 N   0  0  0  0  0  0  0  0  0  0  0  0
   11.6187   36.3384   30.4694 O   0  0  0  0  0  0  0  0  0  0  0  0
   14.4801   36.3321   33.5724 C   0  0  0  0  0  0  0  0  0  0  0  0
   13.1137   37.6275   34.5687 C   0  0  0  0  0  0  0  0  0  0  0  0
   15.2073   35.6153   32.6738 N   0  0  0  0  0  0  0  0  0  0  0  0
   14.6759   36.2308   34.9179 C   0  0  0  0  0  0  0  0  0  0  0  0
   13.8216   37.0452   35.5781 N   0  0  0  0  0  0  0  0  0  0  0  0
   16.1640   34.7602   33.1546 C   0  0  0  0  0  0  0  0  0  0  0  0
   15.6526   35.3508   35.4129 C   0  0  0  0  0  0  0  0  0  0  0  0
   16.3794   34.6317   34.5041 N   0  0  0  0  0  0  0  0  0  0  0  0
   15.8999   35.1935   36.8088 N   0  0  0  0  0  0  0  0  0  0  0  0
    9.0121   45.4316   33.6714 H   0  0  0  0  0  0  0  0  0  0  0  0
   11.8905   45.7658   32.9468 H   0  0  0  0  0  0  0  0  0  0  0  0
   10.7258   46.9687   33.1213 H   0  0  0  0  0  0  0  0  0  0  0  0
    9.3413   43.8329   31.4762 H   0  0  0  0  0  0  0  0  0  0  0  0
   10.7228   44.8813   31.1555 H   0  0  0  0  0  0  0  0  0  0  0  0
    7.0082   44.7168   31.5811 H   0  0  0  0  0  0  0  0  0  0  0  0
   10.3469   47.1848   30.4117 H   0  0  0  0  0  0  0  0  0  0  0  0
    5.4623   46.3058   30.4995 H   0  0  0  0  0  0  0  0  0  0  0  0
    8.8174   48.7638   29.3492 H   0  0  0  0  0  0  0  0  0  0  0  0
    7.0782   50.3230   29.1312 H   0  0  0  0  0  0  0  0  0  0  0  0
    4.6408   50.7218   29.1850 H   0  0  0  0  0  0  0  0  0  0  0  0
    4.4614   49.9745   27.5544 H   0  0  0  0  0  0  0  0  0  0  0  0
    5.4298   51.4801   27.7544 H   0  0  0  0  0  0  0  0  0  0  0  0
    8.2632   51.2372   27.2456 H   0  0  0  0  0  0  0  0  0  0  0  0
    7.5805   46.9962   24.7109 H   0  0  0  0  0  0  0  0  0  0  0  0
   11.3166   49.8269   23.8933 H   0  0  0  0  0  0  0  0  0  0  0  0
   10.0306   50.6299   22.8725 H   0  0  0  0  0  0  0  0  0  0  0  0
    9.8300   40.7410   31.7613 H   0  0  0  0  0  0  0  0  0  0  0  0
   11.3968   41.5460   31.4728 H   0  0  0  0  0  0  0  0  0  0  0  0
   11.6975   39.5067   30.3481 H   0  0  0  0  0  0  0  0  0  0  0  0
   10.1076   38.2648   32.6645 H   0  0  0  0  0  0  0  0  0  0  0  0
   13.6621   37.4467   31.2209 H   0  0  0  0  0  0  0  0  0  0  0  0
    8.8975   38.6944   30.8830 H   0  0  0  0  0  0  0  0  0  0  0  0
   11.2806   36.3073   32.5170 H   0  0  0  0  0  0  0  0  0  0  0  0
   10.8492   35.7111   30.4586 H   0  0  0  0  0  0  0  0  0  0  0  0
   12.3290   38.3524   34.7444 H   0  0  0  0  0  0  0  0  0  0  0  0
   16.7559   34.1780   32.4620 H   0  0  0  0  0  0  0  0  0  0  0  0
   16.6344   34.5301   37.1414 H   0  0  0  0  0  0  0  0  0  0  0  0
   15.3531   35.7362   37.5137 H   0  0  0  0  0  0  0  0  0  0  0  0
  1  2  2  0
  1  3  1  0
  3  4  1  0
  4  5  1  0
  6  1  1  0
  7  6  1  0
  6  8  1  0
  8  9  1  0
  9 10  2  0
 11  9  1  0
 10 12  1  0
 13 11  2  0
 12 14  2  0
 14 13  1  0
 14 15  1  0
 15 16  1  0
 16 17  1  0
 16 18  1  0
 18 19  2  0
 20 18  1  0
 19 21  1  0
 22 20  2  0
 20 23  1  0
 21 24  1  0
 21 25  2  0
 25 22  1  0
 23 26  1  0
 23 27  2  0
 24 28  1  0
 25 29  1  0
 28 29  1  0
  4 30  2  0
  4 31  1  0
 32 31  1  0
 32 33  1  0
 33 34  1  0
 33 35  1  0
 34 36  1  0
 35 37  1  0
 35 38  1  0
 38 36  1  0
 36 39  1  0
 38 40  1  0
 41 39  1  0
 42 39  1  0
 43 41  2  0
 41 44  1  0
 45 42  2  0
 46 43  1  0
 44 47  2  0
 44 45  1  0
 48 46  2  0
 48 47  1  0
 47 49  1  0
  6 50  1  1
  7 51  1  0
  7 52  1  0
  8 53  1  0
  8 54  1  0
 10 55  1  0
 11 56  1  0
 12 57  1  0
 13 58  1  0
 16 59  1  1
 17 60  1  0
 17 61  1  0
 17 62  1  0
 19 63  1  0
 22 64  1  0
 28 65  1  0
 28 66  1  0
 32 67  1  0
 32 68  1  0
 33 69  1  0
 35 70  1  0
 36 71  1  0
 37 72  1  0
 38 73  1  0
 40 74  1  0
 42 75  1  0
 46 76  1  0
 49 77  1  0
 49 78  1  0
M  CHG  3   5  -1  23   1  26  -1
M  END
>  <EmbedRMS>  (158) 
0.0829553847181

$$$$

     RDKit          3D

 78 83  0  0  0  0  0  0  0  0999 V2000
   10.2835   43.7630   33.8276 C   0  0  0  0  0  0  0  0  0  0  0  0
   11.4101   43.5867   34.3765 O   0  0  0  0  0  0  0  0  0  0  0  0
    9.3629   42.7237   33.7352 O   0  0  0  0  0  0  0  0  0  0  0  0
    9.8897   41.2249   34.2934 P   0  0  0  0  0  0  0  0  0  0  0  0
   10.3734   41.4544   35.8829 O   0  0  0  0  0  0  0  0  0  0  0  0
    9.9543   45.0704   33.2065 C   0  0  1  0  0  0  0  0  0  0  0  0
   11.0192   46.0486   33.4572 N   0  0  0  0  0  0  0  0  0  0  0  0
    9.7500   44.8516   31.6924 C   0  0  0  0  0  0  0  0  0  0  0  0
    8.7940   45.8424   31.0871 C   0  0  0  0  0  0  0  0  0  0  0  0
    7.4063   45.5992   31.0986 C   0  0  0  0  0  0  0  0  0  0  0  0
    9.2835   46.9894   30.4419 C   0  0  0  0  0  0  0  0  0  0  0  0
    6.5263   46.4990   30.4816 C   0  0  0  0  0  0  0  0  0  0  0  0
    8.4019   47.8881   29.8290 C   0  0  0  0  0  0  0  0  0  0  0  0
    7.0211   47.6542   29.8576 C   0  0  0  0  0  0  0  0  0  0  0  0
    6.1488   48.5562   29.2433 O   0  0  0  0  0  0  0  0  0  0  0  0
    5.4183   49.5647   29.9488 C   0  0  2  0  0  0  0  0  0  0  0  0
    6.3362   50.7134   30.3864 C   0  0  0  0  0  0  0  0  0  0  0  0
    4.5297   48.9645   31.0376 C   0  0  0  0  0  0  0  0  0  0  0  0
    3.2768   48.4504   30.6191 C   0  0  0  0  0  0  0  0  0  0  0  0
    4.8812   48.8738   32.4300 C   0  0  0  0  0  0  0  0  0  0  0  0
    2.4230   47.9073   31.5699 C   0  0  0  0  0  0  0  0  0  0  0  0
    3.9663   48.3241   33.3533 C   0  0  0  0  0  0  0  0  0  0  0  0
    6.1441   49.3168   32.9304 N   0  0  0  0  0  0  0  0  0  0  0  0
    1.1675   47.3610   31.3847 O   0  0  0  0  0  0  0  0  0  0  0  0
    2.7515   47.8505   32.8798 C   0  0  0  0  0  0  0  0  0  0  0  0
    6.1763   50.3130   33.8777 O   0  0  0  0  0  0  0  0  0  0  0  0
    7.1523   48.5989   32.7751 O   0  0  0  0  0  0  0  0  0  0  0  0
    0.6778   46.9346   32.6634 C   0  0  0  0  0  0  0  0  0  0  0  0
    1.7208   47.2660   33.5903 O   0  0  0  0  0  0  0  0  0  0  0  0
    8.8115   40.1835   34.2125 O   0  0  0  0  0  0  0  0  0  0  0  0
   11.2401   40.7937   33.3672 O   0  0  0  0  0  0  0  0  0  0  0  0
   10.9134   40.6865   31.9955 C   0  0  0  0  0  0  0  0  0  0  0  0
   11.5166   39.3786   31.4404 C   0  0  0  0  0  0  0  0  0  0  0  0
   12.7486   39.0849   32.0734 O   0  0  0  0  0  0  0  0  0  0  0  0
   10.6039   38.1883   31.6669 C   0  0  0  0  0  0  0  0  0  0  0  0
   12.9329   37.6775   32.0284 C   0  0  0  0  0  0  0  0  0  0  0  0
    9.6373   38.0938   30.6484 O   0  0  0  0  0  0  0  0  0  0  0  0
   11.5737   37.0140   31.7055 C   0  0  0  0  0  0  0  0  0  0  0  0
   13.4853   37.2120   33.3238 N   0  0  0  0  0  0  0  0  0  0  0  0
   11.6210   36.3379   30.4683 O   0  0  0  0  0  0  0  0  0  0  0  0
   14.4804   36.3319   33.5726 C   0  0  0  0  0  0  0  0  0  0  0  0
   13.1141   37.6275   34.5689 C   0  0  0  0  0  0  0  0  0  0  0  0
   15.2076   35.6152   32.6740 N   0  0  0  0  0  0  0  0  0  0  0  0
   14.6761   36.2306   34.9181 C   0  0  0  0  0  0  0  0  0  0  0  0
   13.8218   37.0451   35.5783 N   0  0  0  0  0  0  0  0  0  0  0  0
   16.1642   34.7600   33.1548 C   0  0  0  0  0  0  0  0  0  0  0  0
   15.6527   35.3507   35.4131 C   0  0  0  0  0  0  0  0  0  0  0  0
   16.3795   34.6315   34.5043 N   0  0  0  0  0  0  0  0  0  0  0  0
   15.9000   35.1933   36.8090 N   0  0  0  0  0  0  0  0  0  0  0  0
    9.0092   45.4354   33.6669 H   0  0  0  0  0  0  0  0  0  0  0  0
   11.9344   45.6938   33.0932 H   0  0  0  0  0  0  0  0  0  0  0  0
   11.1123   46.2000   34.4885 H   0  0  0  0  0  0  0  0  0  0  0  0
   10.7304   44.8936   31.1678 H   0  0  0  0  0  0  0  0  0  0  0  0
    9.3512   43.8350   31.4760 H   0  0  0  0  0  0  0  0  0  0  0  0
    7.0104   44.7124   31.5778 H   0  0  0  0  0  0  0  0  0  0  0  0
   10.3476   47.1883   30.4105 H   0  0  0  0  0  0  0  0  0  0  0  0
    5.4632   46.2969   30.4895 H   0  0  0  0  0  0  0  0  0  0  0  0
    8.7909   48.7700   29.3362 H   0  0  0  0  0  0  0  0  0  0  0  0
    4.7364   50.0327   29.2042 H   0  0  0  0  0  0  0  0  0  0  0  0
    5.7903   51.4162   31.0512 H   0  0  0  0  0  0  0  0  0  0  0  0
    6.6738   51.2770   29.4906 H   0  0  0  0  0  0  0  0  0  0  0  0
    7.2470   50.3424   30.8947 H   0  0  0  0  0  0  0  0  0  0  0  0
    2.9743   48.4755   29.5796 H   0  0  0  0  0  0  0  0  0  0  0  0
    4.2080   48.2525   34.4061 H   0  0  0  0  0  0  0  0  0  0  0  0
   -0.2523   47.4832   32.9210 H   0  0  0  0  0  0  0  0  0  0  0  0
    0.5013   45.8385   32.6611 H   0  0  0  0  0  0  0  0  0  0  0  0
    9.8226   40.7225   31.7628 H   0  0  0  0  0  0  0  0  0  0  0  0
   11.3830   41.5438   31.4674 H   0  0  0  0  0  0  0  0  0  0  0  0
   11.6978   39.5037   30.3478 H   0  0  0  0  0  0  0  0  0  0  0  0
   10.1084   38.2786   32.6626 H   0  0  0  0  0  0  0  0  0  0  0  0
   13.6638   37.4472   31.2214 H   0  0  0  0  0  0  0  0  0  0  0  0
    8.9763   37.4190   30.9532 H   0  0  0  0  0  0  0  0  0  0  0  0
   11.2821   36.3054   32.5171 H   0  0  0  0  0  0  0  0  0  0  0  0
   10.8658   35.6935   30.4652 H   0  0  0  0  0  0  0  0  0  0  0  0
   12.3293   38.3523   34.7444 H   0  0  0  0  0  0  0  0  0  0  0  0
   16.7561   34.1778   32.4621 H   0  0  0  0  0  0  0  0  0  0  0  0
   16.6345   34.5300   37.1416 H   0  0  0  0  0  0  0  0  0  0  0  0
   15.3533   35.7361   37.5138 H   0  0  0  0  0  0  0  0  0  0  0  0
  1  2  2  0
  1  3  1  0
  3  4  1  0
  4  5  1  0
  6  1  1  0
  7  6  1  0
  6  8  1  0
  8  9  1  0
  9 10  2  0
 11  9  1  0
 10 12  1  0
 13 11  2  0
 12 14  2  0
 14 13  1  0
 14 15  1  0
 15 16  1  0
 16 17  1  0
 16 18  1  0
 18 19  2  0
 20 18  1  0
 19 21  1  0
 22 20  2  0
 20 23  1  0
 21 24  1  0
 21 25  2  0
 25 22  1  0
 23 26  1  0
 23 27  2  0
 24 28  1  0
 25 29  1  0
 28 29  1  0
  4 30  2  0
  4 31  1  0
 32 31  1  0
 32 33  1  0
 33 34  1  0
 33 35  1  0
 34 36  1  0
 35 37  1  0
 35 38  1  0
 38 36  1  0
 36 39  1  0
 38 40  1  0
 41 39  1  0
 42 39  1  0
 43 41  2  0
 41 44  1  0
 45 42  2  0
 46 43  1  0
 44 47  2  0
 44 45  1  0
 48 46  2  0
 48 47  1  0
 47 49  1  0
  6 50  1  1
  7 51  1  0
  7 52  1  0
  8 53  1  0
  8 54  1  0
 10 55  1  0
 11 56  1  0
 12 57  1  0
 13 58  1  0
 16 59  1  6
 17 60  1  0
 17 61  1  0
 17 62  1  0
 19 63  1  0
 22 64  1  0
 28 65  1  0
 28 66  1  0
 32 67  1  0
 32 68  1  0
 33 69  1  0
 35 70  1  0
 36 71  1  0
 37 72  1  0
 38 73  1  0
 40 74  1  0
 42 75  1  0
 46 76  1  0
 49 77  1  0
 49 78  1  0
M  CHG  3   5  -1  23   1  26  -1
M  END
>  <EmbedRMS>  (159) 
0.0835436459075

$$$$

     RDKit          3D

 78 83  0  0  0  0  0  0  0  0999 V2000
   10.2835   43.7661   33.8257 C   0  0  0  0  0  0  0  0  0  0  0  0
   11.4102   43.5930   34.3753 O   0  0  0  0  0  0  0  0  0  0  0  0
    9.3638   42.7255   33.7349 O   0  0  0  0  0  0  0  0  0  0  0  0
    9.8907   41.2265   34.2933 P   0  0  0  0  0  0  0  0  0  0  0  0
   10.3743   41.4557   35.8828 O   0  0  0  0  0  0  0  0  0  0  0  0
    9.9547   45.0695   33.2036 C   0  0  1  0  0  0  0  0  0  0  0  0
   11.0274   46.0321   33.4757 N   0  0  0  0  0  0  0  0  0  0  0  0
    9.7466   44.8481   31.6878 C   0  0  0  0  0  0  0  0  0  0  0  0
    8.7923   45.8408   31.0847 C   0  0  0  0  0  0  0  0  0  0  0  0
    7.4058   45.6014   31.0989 C   0  0  0  0  0  0  0  0  0  0  0  0
    9.2820   46.9875   30.4424 C   0  0  0  0  0  0  0  0  0  0  0  0
    6.5273   46.5029   30.4835 C   0  0  0  0  0  0  0  0  0  0  0  0
    8.4034   47.8898   29.8310 C   0  0  0  0  0  0  0  0  0  0  0  0
    7.0132   47.6539   29.8479 C   0  0  0  0  0  0  0  0  0  0  0  0
    6.0818   48.5162   29.2451 O   0  0  0  0  0  0  0  0  0  0  0  0
    6.3750   49.7627   28.6067 C   0  0  2  0  0  0  0  0  0  0  0  0
    6.6326   50.8298   29.6823 C   0  0  0  0  0  0  0  0  0  0  0  0
    5.2368   50.0868   27.6404 C   0  0  0  0  0  0  0  0  0  0  0  0
    4.5050   51.3041   27.7345 C   0  0  0  0  0  0  0  0  0  0  0  0
    4.8582   49.1333   26.6316 C   0  0  0  0  0  0  0  0  0  0  0  0
    3.4454   51.5163   26.8628 C   0  0  0  0  0  0  0  0  0  0  0  0
    3.7596   49.4029   25.7836 C   0  0  0  0  0  0  0  0  0  0  0  0
    5.5588   47.8880   26.4677 N   0  0  0  0  0  0  0  0  0  0  0  0
    2.6075   52.6122   26.7828 O   0  0  0  0  0  0  0  0  0  0  0  0
    3.0867   50.6058   25.9315 C   0  0  0  0  0  0  0  0  0  0  0  0
    6.9326   47.8612   26.4109 O   0  0  0  0  0  0  0  0  0  0  0  0
    4.9262   46.8514   26.1779 O   0  0  0  0  0  0  0  0  0  0  0  0
    1.6626   52.3713   25.7314 C   0  0  0  0  0  0  0  0  0  0  0  0
    2.0045   51.0783   25.2142 O   0  0  0  0  0  0  0  0  0  0  0  0
    8.8123   40.1850   34.2127 O   0  0  0  0  0  0  0  0  0  0  0  0
   11.2407   40.7945   33.3670 O   0  0  0  0  0  0  0  0  0  0  0  0
   10.9134   40.6866   31.9954 C   0  0  0  0  0  0  0  0  0  0  0  0
   11.5167   39.3787   31.4404 C   0  0  0  0  0  0  0  0  0  0  0  0
   12.7486   39.0849   32.0734 O   0  0  0  0  0  0  0  0  0  0  0  0
   10.6039   38.1884   31.6669 C   0  0  0  0  0  0  0  0  0  0  0  0
   12.9329   37.6776   32.0284 C   0  0  0  0  0  0  0  0  0  0  0  0
    9.6374   38.0938   30.6484 O   0  0  0  0  0  0  0  0  0  0  0  0
   11.5737   37.0141   31.7055 C   0  0  0  0  0  0  0  0  0  0  0  0
   13.4853   37.2120   33.3238 N   0  0  0  0  0  0  0  0  0  0  0  0
   11.6210   36.3379   30.4683 O   0  0  0  0  0  0  0  0  0  0  0  0
   14.4804   36.3319   33.5726 C   0  0  0  0  0  0  0  0  0  0  0  0
   13.1141   37.6275   34.5689 C   0  0  0  0  0  0  0  0  0  0  0  0
   15.2075   35.6152   32.6740 N   0  0  0  0  0  0  0  0  0  0  0  0
   14.6761   36.2306   34.9181 C   0  0  0  0  0  0  0  0  0  0  0  0
   13.8218   37.0451   35.5783 N   0  0  0  0  0  0  0  0  0  0  0  0
   16.1642   34.7600   33.1548 C   0  0  0  0  0  0  0  0  0  0  0  0
   15.6527   35.3507   35.4131 C   0  0  0  0  0  0  0  0  0  0  0  0
   16.3795   34.6315   34.5043 N   0  0  0  0  0  0  0  0  0  0  0  0
   15.9000   35.1933   36.8090 N   0  0  0  0  0  0  0  0  0  0  0  0
    9.0121   45.4317   33.6715 H   0  0  0  0  0  0  0  0  0  0  0  0
   10.7260   46.9687   33.1213 H   0  0  0  0  0  0  0  0  0  0  0  0
   11.8906   45.7658   32.9470 H   0  0  0  0  0  0  0  0  0  0  0  0
    9.3415   43.8329   31.4763 H   0  0  0  0  0  0  0  0  0  0  0  0
   10.7229   44.8814   31.1557 H   0  0  0  0  0  0  0  0  0  0  0  0
    7.0086   44.7163   31.5804 H   0  0  0  0  0  0  0  0  0  0  0  0
   10.3468   47.1839   30.4111 H   0  0  0  0  0  0  0  0  0  0  0  0
    5.4629   46.3052   30.5000 H   0  0  0  0  0  0  0  0  0  0  0  0
    8.8223   48.7599   29.3477 H   0  0  0  0  0  0  0  0  0  0  0  0
    7.2975   49.6794   27.9974 H   0  0  0  0  0  0  0  0  0  0  0  0
    6.9222   51.7933   29.2115 H   0  0  0  0  0  0  0  0  0  0  0  0
    5.7306   50.9701   30.3155 H   0  0  0  0  0  0  0  0  0  0  0  0
    7.4667   50.5188   30.3440 H   0  0  0  0  0  0  0  0  0  0  0  0
    4.7292   52.0707   28.4611 H   0  0  0  0  0  0  0  0  0  0  0  0
    3.4509   48.6999   25.0205 H   0  0  0  0  0  0  0  0  0  0  0  0
    0.6297   52.3604   26.1382 H   0  0  0  0  0  0  0  0  0  0  0  0
    1.7661   53.1410   24.9381 H   0  0  0  0  0  0  0  0  0  0  0  0
   11.3827   41.5438   31.4669 H   0  0  0  0  0  0  0  0  0  0  0  0
    9.8225   40.7225   31.7631 H   0  0  0  0  0  0  0  0  0  0  0  0
   11.6978   39.5037   30.3478 H   0  0  0  0  0  0  0  0  0  0  0  0
   10.1084   38.2787   32.6627 H   0  0  0  0  0  0  0  0  0  0  0  0
   13.6638   37.4472   31.2214 H   0  0  0  0  0  0  0  0  0  0  0  0
    8.9763   37.4191   30.9532 H   0  0  0  0  0  0  0  0  0  0  0  0
   11.2821   36.3054   32.5172 H   0  0  0  0  0  0  0  0  0  0  0  0
   10.8658   35.6935   30.4652 H   0  0  0  0  0  0  0  0  0  0  0  0
   12.3293   38.3523   34.7444 H   0  0  0  0  0  0  0  0  0  0  0  0
   16.7561   34.1778   32.4621 H   0  0  0  0  0  0  0  0  0  0  0  0
   16.6345   34.5300   37.1416 H   0  0  0  0  0  0  0  0  0  0  0  0
   15.3533   35.7361   37.5138 H   0  0  0  0  0  0  0  0  0  0  0  0
  1  2  2  0
  1  3  1  0
  3  4  1  0
  4  5  1  0
  6  1  1  0
  7  6  1  0
  6  8  1  0
  8  9  1  0
  9 10  2  0
 11  9  1  0
 10 12  1  0
 13 11  2  0
 12 14  2  0
 14 13  1  0
 14 15  1  0
 15 16  1  0
 16 17  1  0
 16 18  1  0
 18 19  2  0
 20 18  1  0
 19 21  1  0
 22 20  2  0
 20 23  1  0
 21 24  1  0
 21 25  2  0
 25 22  1  0
 23 26  1  0
 23 27  2  0
 24 28  1  0
 25 29  1  0
 28 29  1  0
  4 30  2  0
  4 31  1  0
 32 31  1  0
 32 33  1  0
 33 34  1  0
 33 35  1  0
 34 36  1  0
 35 37  1  0
 35 38  1  0
 38 36  1  0
 36 39  1  0
 38 40  1  0
 41 39  1  0
 42 39  1  0
 43 41  2  0
 41 44  1  0
 45 42  2  0
 46 43  1  0
 44 47  2  0
 44 45  1  0
 48 46  2  0
 48 47  1  0
 47 49  1  0
  6 50  1  1
  7 51  1  0
  7 52  1  0
  8 53  1  0
  8 54  1  0
 10 55  1  0
 11 56  1  0
 12 57  1  0
 13 58  1  0
 16 59  1  6
 17 60  1  0
 17 61  1  0
 17 62  1  0
 19 63  1  0
 22 64  1  0
 28 65  1  0
 28 66  1  0
 32 67  1  0
 32 68  1  0
 33 69  1  0
 35 70  1  0
 36 71  1  0
 37 72  1  0
 38 73  1  0
 40 74  1  0
 42 75  1  0
 46 76  1  0
 49 77  1  0
 49 78  1  0
M  CHG  3   5  -1  23   1  26  -1
M  END
>  <EmbedRMS>  (160) 
0.0825499519752

$$$$

     RDKit          3D

 78 83  0  0  0  0  0  0  0  0999 V2000
   10.2834   43.7664   33.8256 C   0  0  0  0  0  0  0  0  0  0  0  0
   11.4102   43.5932   34.3751 O   0  0  0  0  0  0  0  0  0  0  0  0
    9.3636   42.7257   33.7352 O   0  0  0  0  0  0  0  0  0  0  0  0
    9.8903   41.2268   34.2942 P   0  0  0  0  0  0  0  0  0  0  0  0
   10.3738   41.4561   35.8836 O   0  0  0  0  0  0  0  0  0  0  0  0
    9.9546   45.0696   33.2032 C   0  0  1  0  0  0  0  0  0  0  0  0
   11.0271   46.0325   33.4755 N   0  0  0  0  0  0  0  0  0  0  0  0
    9.7471   44.8478   31.6872 C   0  0  0  0  0  0  0  0  0  0  0  0
    8.7927   45.8396   31.0827 C   0  0  0  0  0  0  0  0  0  0  0  0
    7.4063   45.6011   31.0984 C   0  0  0  0  0  0  0  0  0  0  0  0
    9.2819   46.9878   30.4433 C   0  0  0  0  0  0  0  0  0  0  0  0
    6.5275   46.5040   30.4854 C   0  0  0  0  0  0  0  0  0  0  0  0
    8.4026   47.8908   29.8345 C   0  0  0  0  0  0  0  0  0  0  0  0
    7.0129   47.6527   29.8450 C   0  0  0  0  0  0  0  0  0  0  0  0
    6.0747   48.5250   29.2582 O   0  0  0  0  0  0  0  0  0  0  0  0
    6.3300   49.5982   28.3365 C   0  0  2  0  0  0  0  0  0  0  0  0
    7.1478   49.0910   27.1307 C   0  0  0  0  0  0  0  0  0  0  0  0
    6.9292   50.8397   29.0036 C   0  0  0  0  0  0  0  0  0  0  0  0
    7.1722   50.8516   30.4036 C   0  0  0  0  0  0  0  0  0  0  0  0
    7.2432   52.0203   28.2442 C   0  0  0  0  0  0  0  0  0  0  0  0
    7.7881   51.9609   30.9668 C   0  0  0  0  0  0  0  0  0  0  0  0
    7.8869   53.1111   28.8697 C   0  0  0  0  0  0  0  0  0  0  0  0
    6.8855   52.1481   26.8608 N   0  0  0  0  0  0  0  0  0  0  0  0
    8.1361   52.1705   32.2876 O   0  0  0  0  0  0  0  0  0  0  0  0
    8.1400   53.0380   30.2310 C   0  0  0  0  0  0  0  0  0  0  0  0
    7.7430   52.7810   25.9905 O   0  0  0  0  0  0  0  0  0  0  0  0
    5.7135   51.9221   26.4951 O   0  0  0  0  0  0  0  0  0  0  0  0
    8.7492   53.4633   32.3837 C   0  0  0  0  0  0  0  0  0  0  0  0
    8.7304   53.9835   31.0474 O   0  0  0  0  0  0  0  0  0  0  0  0
    8.8122   40.1851   34.2130 O   0  0  0  0  0  0  0  0  0  0  0  0
   11.2405   40.7944   33.3688 O   0  0  0  0  0  0  0  0  0  0  0  0
   10.9141   40.6897   31.9971 C   0  0  0  0  0  0  0  0  0  0  0  0
   11.5260   39.3884   31.4375 C   0  0  0  0  0  0  0  0  0  0  0  0
   12.7502   39.0888   32.0818 O   0  0  0  0  0  0  0  0  0  0  0  0
   10.6115   38.1908   31.6460 C   0  0  0  0  0  0  0  0  0  0  0  0
   12.9357   37.6812   32.0304 C   0  0  0  0  0  0  0  0  0  0  0  0
    9.6146   38.0857   30.6534 O   0  0  0  0  0  0  0  0  0  0  0  0
   11.5770   37.0147   31.7012 C   0  0  0  0  0  0  0  0  0  0  0  0
   13.4849   37.2111   33.3247 N   0  0  0  0  0  0  0  0  0  0  0  0
   11.6193   36.3261   30.4723 O   0  0  0  0  0  0  0  0  0  0  0  0
   14.4803   36.3313   33.5730 C   0  0  0  0  0  0  0  0  0  0  0  0
   13.1142   37.6267   34.5698 C   0  0  0  0  0  0  0  0  0  0  0  0
   15.2075   35.6150   32.6741 N   0  0  0  0  0  0  0  0  0  0  0  0
   14.6762   36.2301   34.9184 C   0  0  0  0  0  0  0  0  0  0  0  0
   13.8221   37.0445   35.5789 N   0  0  0  0  0  0  0  0  0  0  0  0
   16.1641   34.7597   33.1547 C   0  0  0  0  0  0  0  0  0  0  0  0
   15.6528   35.3502   35.4132 C   0  0  0  0  0  0  0  0  0  0  0  0
   16.3798   34.6313   34.5042 N   0  0  0  0  0  0  0  0  0  0  0  0
   15.9003   35.1931   36.8091 N   0  0  0  0  0  0  0  0  0  0  0  0
    9.0116   45.4319   33.6704 H   0  0  0  0  0  0  0  0  0  0  0  0
   10.7254   46.9689   33.1211 H   0  0  0  0  0  0  0  0  0  0  0  0
   11.8905   45.7664   32.9470 H   0  0  0  0  0  0  0  0  0  0  0  0
   10.7236   44.8816   31.1556 H   0  0  0  0  0  0  0  0  0  0  0  0
    9.3425   43.8326   31.4759 H   0  0  0  0  0  0  0  0  0  0  0  0
    7.0089   44.7169   31.5815 H   0  0  0  0  0  0  0  0  0  0  0  0
   10.3457   47.1903   30.4215 H   0  0  0  0  0  0  0  0  0  0  0  0
    5.4629   46.3087   30.5070 H   0  0  0  0  0  0  0  0  0  0  0  0
    8.8166   48.7816   29.3895 H   0  0  0  0  0  0  0  0  0  0  0  0
    5.3333   49.8966   27.9496 H   0  0  0  0  0  0  0  0  0  0  0  0
    6.8506   49.6174   26.2016 H   0  0  0  0  0  0  0  0  0  0  0  0
    8.2363   49.2440   27.2754 H   0  0  0  0  0  0  0  0  0  0  0  0
    6.9559   48.0099   26.9631 H   0  0  0  0  0  0  0  0  0  0  0  0
    6.8993   50.0297   31.0485 H   0  0  0  0  0  0  0  0  0  0  0  0
    8.1454   54.0053   28.3169 H   0  0  0  0  0  0  0  0  0  0  0  0
    8.1597   54.1190   33.0585 H   0  0  0  0  0  0  0  0  0  0  0  0
    9.7954   53.3669   32.7426 H   0  0  0  0  0  0  0  0  0  0  0  0
    9.8230   40.7182   31.7650 H   0  0  0  0  0  0  0  0  0  0  0  0
   11.3771   41.5526   31.4722 H   0  0  0  0  0  0  0  0  0  0  0  0
   11.7282   39.5309   30.3514 H   0  0  0  0  0  0  0  0  0  0  0  0
   10.1126   38.2732   32.6375 H   0  0  0  0  0  0  0  0  0  0  0  0
   13.6692   37.4567   31.2243 H   0  0  0  0  0  0  0  0  0  0  0  0
   10.0531   38.1120   29.7635 H   0  0  0  0  0  0  0  0  0  0  0  0
   11.2607   36.3146   32.5101 H   0  0  0  0  0  0  0  0  0  0  0  0
   12.1493   35.5021   30.6322 H   0  0  0  0  0  0  0  0  0  0  0  0
   12.3303   38.3523   34.7455 H   0  0  0  0  0  0  0  0  0  0  0  0
   16.7559   34.1777   32.4618 H   0  0  0  0  0  0  0  0  0  0  0  0
   15.3535   35.7358   37.5140 H   0  0  0  0  0  0  0  0  0  0  0  0
   16.6350   34.5301   37.1418 H   0  0  0  0  0  0  0  0  0  0  0  0
  1  2  2  0
  1  3  1  0
  3  4  1  0
  4  5  1  0
  6  1  1  0
  7  6  1  0
  6  8  1  0
  8  9  1  0
  9 10  2  0
 11  9  1  0
 10 12  1  0
 13 11  2  0
 12 14  2  0
 14 13  1  0
 14 15  1  0
 15 16  1  0
 16 17  1  0
 16 18  1  0
 18 19  2  0
 20 18  1  0
 19 21  1  0
 22 20  2  0
 20 23  1  0
 21 24  1  0
 21 25  2  0
 25 22  1  0
 23 26  1  0
 23 27  2  0
 24 28  1  0
 25 29  1  0
 28 29  1  0
  4 30  2  0
  4 31  1  0
 32 31  1  0
 32 33  1  0
 33 34  1  0
 33 35  1  0
 34 36  1  0
 35 37  1  0
 35 38  1  0
 38 36  1  0
 36 39  1  0
 38 40  1  0
 41 39  1  0
 42 39  1  0
 43 41  2  0
 41 44  1  0
 45 42  2  0
 46 43  1  0
 44 47  2  0
 44 45  1  0
 48 46  2  0
 48 47  1  0
 47 49  1  0
  6 50  1  1
  7 51  1  0
  7 52  1  0
  8 53  1  0
  8 54  1  0
 10 55  1  0
 11 56  1  0
 12 57  1  0
 13 58  1  0
 16 59  1  6
 17 60  1  0
 17 61  1  0
 17 62  1  0
 19 63  1  0
 22 64  1  0
 28 65  1  0
 28 66  1  0
 32 67  1  0
 32 68  1  0
 33 69  1  0
 35 70  1  0
 36 71  1  0
 37 72  1  0
 38 73  1  0
 40 74  1  0
 42 75  1  0
 46 76  1  0
 49 77  1  0
 49 78  1  0
M  CHG  3   5  -1  23   1  26  -1
M  END
>  <EmbedRMS>  (161) 
0.0816413341493

$$$$

     RDKit          3D

 78 83  0  0  0  0  0  0  0  0999 V2000
   10.2836   43.7661   33.8257 C   0  0  0  0  0  0  0  0  0  0  0  0
   11.4103   43.5930   34.3753 O   0  0  0  0  0  0  0  0  0  0  0  0
    9.3641   42.7252   33.7347 O   0  0  0  0  0  0  0  0  0  0  0  0
    9.8908   41.2264   34.2939 P   0  0  0  0  0  0  0  0  0  0  0  0
   10.3732   41.4558   35.8836 O   0  0  0  0  0  0  0  0  0  0  0  0
    9.9547   45.0694   33.2037 C   0  0  1  0  0  0  0  0  0  0  0  0
   11.0274   46.0321   33.4757 N   0  0  0  0  0  0  0  0  0  0  0  0
    9.7465   44.8481   31.6878 C   0  0  0  0  0  0  0  0  0  0  0  0
    8.7923   45.8409   31.0848 C   0  0  0  0  0  0  0  0  0  0  0  0
    7.4057   45.6014   31.0988 C   0  0  0  0  0  0  0  0  0  0  0  0
    9.2821   46.9875   30.4422 C   0  0  0  0  0  0  0  0  0  0  0  0
    6.5272   46.5027   30.4832 C   0  0  0  0  0  0  0  0  0  0  0  0
    8.4034   47.8897   29.8307 C   0  0  0  0  0  0  0  0  0  0  0  0
    7.0133   47.6541   29.8486 C   0  0  0  0  0  0  0  0  0  0  0  0
    6.0825   48.5182   29.2487 O   0  0  0  0  0  0  0  0  0  0  0  0
    6.3678   49.7920   28.6647 C   0  0  2  0  0  0  0  0  0  0  0  0
    6.6731   50.8410   29.7408 C   0  0  0  0  0  0  0  0  0  0  0  0
    5.2114   50.2552   27.7943 C   0  0  0  0  0  0  0  0  0  0  0  0
    5.5280   51.0376   26.6564 C   0  0  0  0  0  0  0  0  0  0  0  0
    3.8352   49.9179   28.0487 C   0  0  0  0  0  0  0  0  0  0  0  0
    4.5012   51.4267   25.8070 C   0  0  0  0  0  0  0  0  0  0  0  0
    2.8367   50.3292   27.1368 C   0  0  0  0  0  0  0  0  0  0  0  0
    3.4287   49.1669   29.2032 N   0  0  0  0  0  0  0  0  0  0  0  0
    4.5817   52.1766   24.6494 O   0  0  0  0  0  0  0  0  0  0  0  0
    3.2134   51.0838   26.0346 C   0  0  0  0  0  0  0  0  0  0  0  0
    2.4268   48.2311   29.0884 O   0  0  0  0  0  0  0  0  0  0  0  0
    3.7984   49.5138   30.3431 O   0  0  0  0  0  0  0  0  0  0  0  0
    3.2569   52.3124   24.1174 C   0  0  0  0  0  0  0  0  0  0  0  0
    2.4139   51.5997   25.0328 O   0  0  0  0  0  0  0  0  0  0  0  0
    8.8127   40.1847   34.2122 O   0  0  0  0  0  0  0  0  0  0  0  0
   11.2421   40.7941   33.3697 O   0  0  0  0  0  0  0  0  0  0  0  0
   10.9187   40.6911   31.9971 C   0  0  0  0  0  0  0  0  0  0  0  0
   11.5172   39.3815   31.4408 C   0  0  0  0  0  0  0  0  0  0  0  0
   12.7493   39.0855   32.0728 O   0  0  0  0  0  0  0  0  0  0  0  0
   10.6023   38.1908   31.6665 C   0  0  0  0  0  0  0  0  0  0  0  0
   12.9319   37.6781   32.0281 C   0  0  0  0  0  0  0  0  0  0  0  0
    9.6392   38.0798   30.6452 O   0  0  0  0  0  0  0  0  0  0  0  0
   11.5715   37.0166   31.7056 C   0  0  0  0  0  0  0  0  0  0  0  0
   13.4847   37.2121   33.3235 N   0  0  0  0  0  0  0  0  0  0  0  0
   11.6187   36.3384   30.4695 O   0  0  0  0  0  0  0  0  0  0  0  0
   14.4801   36.3321   33.5724 C   0  0  0  0  0  0  0  0  0  0  0  0
   13.1137   37.6275   34.5687 C   0  0  0  0  0  0  0  0  0  0  0  0
   15.2073   35.6153   32.6738 N   0  0  0  0  0  0  0  0  0  0  0  0
   14.6759   36.2308   34.9179 C   0  0  0  0  0  0  0  0  0  0  0  0
   13.8216   37.0452   35.5781 N   0  0  0  0  0  0  0  0  0  0  0  0
   16.1640   34.7602   33.1546 C   0  0  0  0  0  0  0  0  0  0  0  0
   15.6526   35.3508   35.4129 C   0  0  0  0  0  0  0  0  0  0  0  0
   16.3794   34.6317   34.5041 N   0  0  0  0  0  0  0  0  0  0  0  0
   15.8999   35.1934   36.8088 N   0  0  0  0  0  0  0  0  0  0  0  0
    9.0121   45.4316   33.6716 H   0  0  0  0  0  0  0  0  0  0  0  0
   10.7259   46.9687   33.1214 H   0  0  0  0  0  0  0  0  0  0  0  0
   11.8906   45.7658   32.9470 H   0  0  0  0  0  0  0  0  0  0  0  0
    9.3414   43.8329   31.4764 H   0  0  0  0  0  0  0  0  0  0  0  0
   10.7229   44.8814   31.1558 H   0  0  0  0  0  0  0  0  0  0  0  0
    7.0084   44.7164   31.5805 H   0  0  0  0  0  0  0  0  0  0  0  0
   10.3469   47.1835   30.4103 H   0  0  0  0  0  0  0  0  0  0  0  0
    5.4625   46.3061   30.5007 H   0  0  0  0  0  0  0  0  0  0  0  0
    8.8214   48.7587   29.3441 H   0  0  0  0  0  0  0  0  0  0  0  0
    7.2617   49.6841   28.0120 H   0  0  0  0  0  0  0  0  0  0  0  0
    7.5048   50.5045   30.3924 H   0  0  0  0  0  0  0  0  0  0  0  0
    5.7871   51.0333   30.3781 H   0  0  0  0  0  0  0  0  0  0  0  0
    6.9761   51.7964   29.2617 H   0  0  0  0  0  0  0  0  0  0  0  0
    6.5481   51.3246   26.4332 H   0  0  0  0  0  0  0  0  0  0  0  0
    1.7941   50.0858   27.2962 H   0  0  0  0  0  0  0  0  0  0  0  0
    2.9651   53.3830   24.0819 H   0  0  0  0  0  0  0  0  0  0  0  0
    3.1996   51.8545   23.1077 H   0  0  0  0  0  0  0  0  0  0  0  0
    9.8300   40.7410   31.7613 H   0  0  0  0  0  0  0  0  0  0  0  0
   11.3969   41.5460   31.4729 H   0  0  0  0  0  0  0  0  0  0  0  0
   11.6975   39.5067   30.3481 H   0  0  0  0  0  0  0  0  0  0  0  0
   10.1077   38.2648   32.6645 H   0  0  0  0  0  0  0  0  0  0  0  0
   13.6621   37.4467   31.2209 H   0  0  0  0  0  0  0  0  0  0  0  0
    8.8975   38.6944   30.8831 H   0  0  0  0  0  0  0  0  0  0  0  0
   11.2806   36.3073   32.5170 H   0  0  0  0  0  0  0  0  0  0  0  0
   10.8492   35.7110   30.4586 H   0  0  0  0  0  0  0  0  0  0  0  0
   12.3290   38.3523   34.7444 H   0  0  0  0  0  0  0  0  0  0  0  0
   16.7559   34.1780   32.4619 H   0  0  0  0  0  0  0  0  0  0  0  0
   15.3531   35.7362   37.5137 H   0  0  0  0  0  0  0  0  0  0  0  0
   16.6344   34.5301   37.1414 H   0  0  0  0  0  0  0  0  0  0  0  0
  1  2  2  0
  1  3  1  0
  3  4  1  0
  4  5  1  0
  6  1  1  0
  7  6  1  0
  6  8  1  0
  8  9  1  0
  9 10  2  0
 11  9  1  0
 10 12  1  0
 13 11  2  0
 12 14  2  0
 14 13  1  0
 14 15  1  0
 15 16  1  0
 16 17  1  0
 16 18  1  0
 18 19  2  0
 20 18  1  0
 19 21  1  0
 22 20  2  0
 20 23  1  0
 21 24  1  0
 21 25  2  0
 25 22  1  0
 23 26  1  0
 23 27  2  0
 24 28  1  0
 25 29  1  0
 28 29  1  0
  4 30  2  0
  4 31  1  0
 32 31  1  0
 32 33  1  0
 33 34  1  0
 33 35  1  0
 34 36  1  0
 35 37  1  0
 35 38  1  0
 38 36  1  0
 36 39  1  0
 38 40  1  0
 41 39  1  0
 42 39  1  0
 43 41  2  0
 41 44  1  0
 45 42  2  0
 46 43  1  0
 44 47  2  0
 44 45  1  0
 48 46  2  0
 48 47  1  0
 47 49  1  0
  6 50  1  1
  7 51  1  0
  7 52  1  0
  8 53  1  0
  8 54  1  0
 10 55  1  0
 11 56  1  0
 12 57  1  0
 13 58  1  0
 16 59  1  6
 17 60  1  0
 17 61  1  0
 17 62  1  0
 19 63  1  0
 22 64  1  0
 28 65  1  0
 28 66  1  0
 32 67  1  0
 32 68  1  0
 33 69  1  0
 35 70  1  0
 36 71  1  0
 37 72  1  0
 38 73  1  0
 40 74  1  0
 42 75  1  0
 46 76  1  0
 49 77  1  0
 49 78  1  0
M  CHG  3   5  -1  23   1  26  -1
M  END
>  <EmbedRMS>  (162) 
0.0829349688238

$$$$

     RDKit          3D

 78 83  0  0  0  0  0  0  0  0999 V2000
   10.2834   43.7662   33.8257 C   0  0  0  0  0  0  0  0  0  0  0  0
   11.4101   43.5930   34.3752 O   0  0  0  0  0  0  0  0  0  0  0  0
    9.3635   42.7257   33.7352 O   0  0  0  0  0  0  0  0  0  0  0  0
    9.8899   41.2270   34.2948 P   0  0  0  0  0  0  0  0  0  0  0  0
   10.3732   41.4562   35.8841 O   0  0  0  0  0  0  0  0  0  0  0  0
    9.9546   45.0695   33.2035 C   0  0  1  0  0  0  0  0  0  0  0  0
   11.0274   46.0321   33.4755 N   0  0  0  0  0  0  0  0  0  0  0  0
    9.7465   44.8480   31.6876 C   0  0  0  0  0  0  0  0  0  0  0  0
    8.7923   45.8408   31.0844 C   0  0  0  0  0  0  0  0  0  0  0  0
    7.4055   45.6018   31.0994 C   0  0  0  0  0  0  0  0  0  0  0  0
    9.2823   46.9879   30.4426 C   0  0  0  0  0  0  0  0  0  0  0  0
    6.5267   46.5035   30.4844 C   0  0  0  0  0  0  0  0  0  0  0  0
    8.4033   47.8903   29.8323 C   0  0  0  0  0  0  0  0  0  0  0  0
    7.0141   47.6519   29.8461 C   0  0  0  0  0  0  0  0  0  0  0  0
    6.0891   48.5164   29.2375 O   0  0  0  0  0  0  0  0  0  0  0  0
    6.4217   49.6856   28.4856 C   0  0  2  0  0  0  0  0  0  0  0  0
    5.1598   50.5026   28.2104 C   0  0  0  0  0  0  0  0  0  0  0  0
    7.1371   49.3513   27.1845 C   0  0  0  0  0  0  0  0  0  0  0  0
    8.1100   50.2729   26.7271 C   0  0  0  0  0  0  0  0  0  0  0  0
    6.9119   48.1429   26.4359 C   0  0  0  0  0  0  0  0  0  0  0  0
    8.8352   49.9649   25.5842 C   0  0  0  0  0  0  0  0  0  0  0  0
    7.6943   47.8781   25.2892 C   0  0  0  0  0  0  0  0  0  0  0  0
    5.9230   47.1748   26.8189 N   0  0  0  0  0  0  0  0  0  0  0  0
    9.8278   50.7053   24.9713 O   0  0  0  0  0  0  0  0  0  0  0  0
    8.6392   48.8165   24.8982 C   0  0  0  0  0  0  0  0  0  0  0  0
    6.1935   45.8330   26.6801 O   0  0  0  0  0  0  0  0  0  0  0  0
    4.7523   47.5296   27.0625 O   0  0  0  0  0  0  0  0  0  0  0  0
   10.2826   49.9723   23.8257 C   0  0  0  0  0  0  0  0  0  0  0  0
    9.4972   48.7724   23.8162 O   0  0  0  0  0  0  0  0  0  0  0  0
    8.8120   40.1850   34.2133 O   0  0  0  0  0  0  0  0  0  0  0  0
   11.2403   40.7947   33.3700 O   0  0  0  0  0  0  0  0  0  0  0  0
   10.9144   40.6914   31.9982 C   0  0  0  0  0  0  0  0  0  0  0  0
   11.5270   39.3912   31.4385 C   0  0  0  0  0  0  0  0  0  0  0  0
   12.7520   39.0911   32.0836 O   0  0  0  0  0  0  0  0  0  0  0  0
   10.6113   38.1932   31.6451 C   0  0  0  0  0  0  0  0  0  0  0  0
   12.9413   37.6838   32.0297 C   0  0  0  0  0  0  0  0  0  0  0  0
    9.6064   38.0878   30.6599 O   0  0  0  0  0  0  0  0  0  0  0  0
   11.5822   37.0198   31.6877 C   0  0  0  0  0  0  0  0  0  0  0  0
   13.4840   37.2104   33.3254 N   0  0  0  0  0  0  0  0  0  0  0  0
   11.6179   36.3072   30.4690 O   0  0  0  0  0  0  0  0  0  0  0  0
   14.4797   36.3309   33.5738 C   0  0  0  0  0  0  0  0  0  0  0  0
   13.1136   37.6269   34.5702 C   0  0  0  0  0  0  0  0  0  0  0  0
   15.2074   35.6152   32.6747 N   0  0  0  0  0  0  0  0  0  0  0  0
   14.6756   36.2298   34.9190 C   0  0  0  0  0  0  0  0  0  0  0  0
   13.8217   37.0445   35.5793 N   0  0  0  0  0  0  0  0  0  0  0  0
   16.1643   34.7603   33.1551 C   0  0  0  0  0  0  0  0  0  0  0  0
   15.6528   35.3503   35.4136 C   0  0  0  0  0  0  0  0  0  0  0  0
   16.3798   34.6316   34.5046 N   0  0  0  0  0  0  0  0  0  0  0  0
   15.9004   35.1930   36.8094 N   0  0  0  0  0  0  0  0  0  0  0  0
    9.0121   45.4319   33.6713 H   0  0  0  0  0  0  0  0  0  0  0  0
   10.7260   46.9687   33.1212 H   0  0  0  0  0  0  0  0  0  0  0  0
   11.8906   45.7657   32.9467 H   0  0  0  0  0  0  0  0  0  0  0  0
   10.7228   44.8813   31.1555 H   0  0  0  0  0  0  0  0  0  0  0  0
    9.3412   43.8329   31.4762 H   0  0  0  0  0  0  0  0  0  0  0  0
    7.0082   44.7168   31.5810 H   0  0  0  0  0  0  0  0  0  0  0  0
   10.3469   47.1850   30.4121 H   0  0  0  0  0  0  0  0  0  0  0  0
    5.4623   46.3059   30.4995 H   0  0  0  0  0  0  0  0  0  0  0  0
    8.8172   48.7646   29.3507 H   0  0  0  0  0  0  0  0  0  0  0  0
    7.0756   50.3245   29.1211 H   0  0  0  0  0  0  0  0  0  0  0  0
    4.4574   49.9554   27.5506 H   0  0  0  0  0  0  0  0  0  0  0  0
    5.4280   51.4638   27.7218 H   0  0  0  0  0  0  0  0  0  0  0  0
    4.6440   50.7292   29.1675 H   0  0  0  0  0  0  0  0  0  0  0  0
    8.3067   51.1968   27.2566 H   0  0  0  0  0  0  0  0  0  0  0  0
    7.5553   46.9748   24.7093 H   0  0  0  0  0  0  0  0  0  0  0  0
   11.3596   49.7244   23.9311 H   0  0  0  0  0  0  0  0  0  0  0  0
   10.1012   50.5563   22.8992 H   0  0  0  0  0  0  0  0  0  0  0  0
    9.8234   40.7201   31.7654 H   0  0  0  0  0  0  0  0  0  0  0  0
   11.3776   41.5549   31.4744 H   0  0  0  0  0  0  0  0  0  0  0  0
   11.7311   39.5363   30.3532 H   0  0  0  0  0  0  0  0  0  0  0  0
   10.1202   38.2696   32.6410 H   0  0  0  0  0  0  0  0  0  0  0  0
   13.6850   37.4639   31.2321 H   0  0  0  0  0  0  0  0  0  0  0  0
   10.0251   38.1793   29.7654 H   0  0  0  0  0  0  0  0  0  0  0  0
   11.2757   36.3135   32.4907 H   0  0  0  0  0  0  0  0  0  0  0  0
   11.9838   36.9111   29.7708 H   0  0  0  0  0  0  0  0  0  0  0  0
   12.3307   38.3536   34.7458 H   0  0  0  0  0  0  0  0  0  0  0  0
   16.7566   34.1787   32.4623 H   0  0  0  0  0  0  0  0  0  0  0  0
   16.6353   34.5301   37.1418 H   0  0  0  0  0  0  0  0  0  0  0  0
   15.3535   35.7355   37.5144 H   0  0  0  0  0  0  0  0  0  0  0  0
  1  2  2  0
  1  3  1  0
  3  4  1  0
  4  5  1  0
  6  1  1  0
  7  6  1  0
  6  8  1  0
  8  9  1  0
  9 10  2  0
 11  9  1  0
 10 12  1  0
 13 11  2  0
 12 14  2  0
 14 13  1  0
 14 15  1  0
 15 16  1  0
 16 17  1  0
 16 18  1  0
 18 19  2  0
 20 18  1  0
 19 21  1  0
 22 20  2  0
 20 23  1  0
 21 24  1  0
 21 25  2  0
 25 22  1  0
 23 26  1  0
 23 27  2  0
 24 28  1  0
 25 29  1  0
 28 29  1  0
  4 30  2  0
  4 31  1  0
 32 31  1  0
 32 33  1  0
 33 34  1  0
 33 35  1  0
 34 36  1  0
 35 37  1  0
 35 38  1  0
 38 36  1  0
 36 39  1  0
 38 40  1  0
 41 39  1  0
 42 39  1  0
 43 41  2  0
 41 44  1  0
 45 42  2  0
 46 43  1  0
 44 47  2  0
 44 45  1  0
 48 46  2  0
 48 47  1  0
 47 49  1  0
  6 50  1  1
  7 51  1  0
  7 52  1  0
  8 53  1  0
  8 54  1  0
 10 55  1  0
 11 56  1  0
 12 57  1  0
 13 58  1  0
 16 59  1  1
 17 60  1  0
 17 61  1  0
 17 62  1  0
 19 63  1  0
 22 64  1  0
 28 65  1  0
 28 66  1  0
 32 67  1  0
 32 68  1  0
 33 69  1  0
 35 70  1  0
 36 71  1  0
 37 72  1  0
 38 73  1  0
 40 74  1  0
 42 75  1  0
 46 76  1  0
 49 77  1  0
 49 78  1  0
M  CHG  3   5  -1  23   1  26  -1
M  END
>  <EmbedRMS>  (163) 
0.0808419034616

$$$$

     RDKit          3D

 78 83  0  0  0  0  0  0  0  0999 V2000
   10.2801   43.7666   33.8249 C   0  0  0  0  0  0  0  0  0  0  0  0
   11.4108   43.5921   34.3665 O   0  0  0  0  0  0  0  0  0  0  0  0
    9.3617   42.7250   33.7344 O   0  0  0  0  0  0  0  0  0  0  0  0
    9.8898   41.2268   34.2939 P   0  0  0  0  0  0  0  0  0  0  0  0
   10.3734   41.4566   35.8832 O   0  0  0  0  0  0  0  0  0  0  0  0
    9.9453   45.0739   33.2112 C   0  0  1  0  0  0  0  0  0  0  0  0
   11.0259   46.0296   33.4708 N   0  0  0  0  0  0  0  0  0  0  0  0
    9.7534   44.8545   31.6949 C   0  0  0  0  0  0  0  0  0  0  0  0
    8.7953   45.8416   31.0848 C   0  0  0  0  0  0  0  0  0  0  0  0
    7.4075   45.5990   31.0996 C   0  0  0  0  0  0  0  0  0  0  0  0
    9.2833   46.9879   30.4367 C   0  0  0  0  0  0  0  0  0  0  0  0
    6.5269   46.4986   30.4829 C   0  0  0  0  0  0  0  0  0  0  0  0
    8.4008   47.8876   29.8270 C   0  0  0  0  0  0  0  0  0  0  0  0
    7.0200   47.6530   29.8583 C   0  0  0  0  0  0  0  0  0  0  0  0
    6.1374   48.5572   29.2601 O   0  0  0  0  0  0  0  0  0  0  0  0
    5.5372   49.6528   29.9593 C   0  0  2  0  0  0  0  0  0  0  0  0
    6.5691   50.7496   30.2593 C   0  0  0  0  0  0  0  0  0  0  0  0
    4.7768   49.1735   31.1927 C   0  0  0  0  0  0  0  0  0  0  0  0
    5.4667   48.9835   32.4190 C   0  0  0  0  0  0  0  0  0  0  0  0
    3.3696   48.8915   31.1374 C   0  0  0  0  0  0  0  0  0  0  0  0
    4.7437   48.5852   33.5349 C   0  0  0  0  0  0  0  0  0  0  0  0
    2.6837   48.5113   32.3131 C   0  0  0  0  0  0  0  0  0  0  0  0
    2.6345   48.9479   29.9045 N   0  0  0  0  0  0  0  0  0  0  0  0
    5.2042   48.3489   34.8159 O   0  0  0  0  0  0  0  0  0  0  0  0
    3.4103   48.3670   33.4865 C   0  0  0  0  0  0  0  0  0  0  0  0
    1.3204   49.3558   29.9101 O   0  0  0  0  0  0  0  0  0  0  0  0
    3.0938   48.4127   28.8745 O   0  0  0  0  0  0  0  0  0  0  0  0
    4.0849   47.9584   35.6230 C   0  0  0  0  0  0  0  0  0  0  0  0
    2.9592   47.9832   34.7347 O   0  0  0  0  0  0  0  0  0  0  0  0
    8.8122   40.1845   34.2133 O   0  0  0  0  0  0  0  0  0  0  0  0
   11.2402   40.7944   33.3689 O   0  0  0  0  0  0  0  0  0  0  0  0
   10.9142   40.6898   31.9971 C   0  0  0  0  0  0  0  0  0  0  0  0
   11.5260   39.3884   31.4376 C   0  0  0  0  0  0  0  0  0  0  0  0
   12.7504   39.0888   32.0816 O   0  0  0  0  0  0  0  0  0  0  0  0
   10.6114   38.1909   31.6461 C   0  0  0  0  0  0  0  0  0  0  0  0
   12.9357   37.6813   32.0303 C   0  0  0  0  0  0  0  0  0  0  0  0
    9.6145   38.0858   30.6534 O   0  0  0  0  0  0  0  0  0  0  0  0
   11.5769   37.0148   31.7013 C   0  0  0  0  0  0  0  0  0  0  0  0
   13.4849   37.2112   33.3247 N   0  0  0  0  0  0  0  0  0  0  0  0
   11.6192   36.3261   30.4724 O   0  0  0  0  0  0  0  0  0  0  0  0
   14.4802   36.3314   33.5730 C   0  0  0  0  0  0  0  0  0  0  0  0
   13.1140   37.6268   34.5698 C   0  0  0  0  0  0  0  0  0  0  0  0
   15.2074   35.6152   32.6741 N   0  0  0  0  0  0  0  0  0  0  0  0
   14.6761   36.2301   34.9184 C   0  0  0  0  0  0  0  0  0  0  0  0
   13.8220   37.0445   35.5789 N   0  0  0  0  0  0  0  0  0  0  0  0
   16.1642   34.7601   33.1547 C   0  0  0  0  0  0  0  0  0  0  0  0
   15.6530   35.3504   35.4131 C   0  0  0  0  0  0  0  0  0  0  0  0
   16.3798   34.6315   34.5042 N   0  0  0  0  0  0  0  0  0  0  0  0
   15.9004   35.1930   36.8090 N   0  0  0  0  0  0  0  0  0  0  0  0
    8.9988   45.4384   33.6720 H   0  0  0  0  0  0  0  0  0  0  0  0
   11.0492   46.2283   34.4982 H   0  0  0  0  0  0  0  0  0  0  0  0
   10.7754   46.9372   33.0158 H   0  0  0  0  0  0  0  0  0  0  0  0
    9.3639   43.8358   31.4711 H   0  0  0  0  0  0  0  0  0  0  0  0
   10.7405   44.9082   31.1836 H   0  0  0  0  0  0  0  0  0  0  0  0
    7.0121   44.7142   31.5828 H   0  0  0  0  0  0  0  0  0  0  0  0
   10.3473   47.1859   30.4000 H   0  0  0  0  0  0  0  0  0  0  0  0
    5.4619   46.3046   30.5004 H   0  0  0  0  0  0  0  0  0  0  0  0
    8.7899   48.7677   29.3312 H   0  0  0  0  0  0  0  0  0  0  0  0
    4.8196   50.1337   29.2631 H   0  0  0  0  0  0  0  0  0  0  0  0
    7.4260   50.3618   30.8455 H   0  0  0  0  0  0  0  0  0  0  0  0
    6.9673   51.1550   29.3048 H   0  0  0  0  0  0  0  0  0  0  0  0
    6.0914   51.5805   30.8211 H   0  0  0  0  0  0  0  0  0  0  0  0
    6.5330   49.1332   32.5094 H   0  0  0  0  0  0  0  0  0  0  0  0
    1.6226   48.2976   32.3030 H   0  0  0  0  0  0  0  0  0  0  0  0
    4.2373   46.9328   36.0200 H   0  0  0  0  0  0  0  0  0  0  0  0
    3.9362   48.6837   36.4503 H   0  0  0  0  0  0  0  0  0  0  0  0
    9.8232   40.7191   31.7644 H   0  0  0  0  0  0  0  0  0  0  0  0
   11.3780   41.5525   31.4724 H   0  0  0  0  0  0  0  0  0  0  0  0
   11.7283   39.5311   30.3516 H   0  0  0  0  0  0  0  0  0  0  0  0
   10.1126   38.2734   32.6377 H   0  0  0  0  0  0  0  0  0  0  0  0
   13.6692   37.4567   31.2241 H   0  0  0  0  0  0  0  0  0  0  0  0
   10.0533   38.1119   29.7636 H   0  0  0  0  0  0  0  0  0  0  0  0
   11.2606   36.3149   32.5102 H   0  0  0  0  0  0  0  0  0  0  0  0
   12.1496   35.5024   30.6324 H   0  0  0  0  0  0  0  0  0  0  0  0
   12.3300   38.3525   34.7455 H   0  0  0  0  0  0  0  0  0  0  0  0
   16.7563   34.1782   32.4619 H   0  0  0  0  0  0  0  0  0  0  0  0
   16.6352   34.5298   37.1415 H   0  0  0  0  0  0  0  0  0  0  0  0
   15.3537   35.7356   37.5140 H   0  0  0  0  0  0  0  0  0  0  0  0
  1  2  2  0
  1  3  1  0
  3  4  1  0
  4  5  1  0
  6  1  1  0
  7  6  1  0
  6  8  1  0
  8  9  1  0
  9 10  2  0
 11  9  1  0
 10 12  1  0
 13 11  2  0
 12 14  2  0
 14 13  1  0
 14 15  1  0
 15 16  1  0
 16 17  1  0
 16 18  1  0
 18 19  2  0
 20 18  1  0
 19 21  1  0
 22 20  2  0
 20 23  1  0
 21 24  1  0
 21 25  2  0
 25 22  1  0
 23 26  1  0
 23 27  2  0
 24 28  1  0
 25 29  1  0
 28 29  1  0
  4 30  2  0
  4 31  1  0
 32 31  1  0
 32 33  1  0
 33 34  1  0
 33 35  1  0
 34 36  1  0
 35 37  1  0
 35 38  1  0
 38 36  1  0
 36 39  1  0
 38 40  1  0
 41 39  1  0
 42 39  1  0
 43 41  2  0
 41 44  1  0
 45 42  2  0
 46 43  1  0
 44 47  2  0
 44 45  1  0
 48 46  2  0
 48 47  1  0
 47 49  1  0
  6 50  1  1
  7 51  1  0
  7 52  1  0
  8 53  1  0
  8 54  1  0
 10 55  1  0
 11 56  1  0
 12 57  1  0
 13 58  1  0
 16 59  1  6
 17 60  1  0
 17 61  1  0
 17 62  1  0
 19 63  1  0
 22 64  1  0
 28 65  1  0
 28 66  1  0
 32 67  1  0
 32 68  1  0
 33 69  1  0
 35 70  1  0
 36 71  1  0
 37 72  1  0
 38 73  1  0
 40 74  1  0
 42 75  1  0
 46 76  1  0
 49 77  1  0
 49 78  1  0
M  CHG  3   5  -1  23   1  26  -1
M  END
>  <EmbedRMS>  (164) 
0.0815795052085

$$$$

     RDKit          3D

 78 83  0  0  0  0  0  0  0  0999 V2000
   10.2836   43.7661   33.8256 C   0  0  0  0  0  0  0  0  0  0  0  0
   11.4103   43.5930   34.3753 O   0  0  0  0  0  0  0  0  0  0  0  0
    9.3640   42.7253   33.7346 O   0  0  0  0  0  0  0  0  0  0  0  0
    9.8908   41.2265   34.2938 P   0  0  0  0  0  0  0  0  0  0  0  0
   10.3732   41.4559   35.8835 O   0  0  0  0  0  0  0  0  0  0  0  0
    9.9548   45.0694   33.2036 C   0  0  1  0  0  0  0  0  0  0  0  0
   11.0274   46.0322   33.4760 N   0  0  0  0  0  0  0  0  0  0  0  0
    9.7472   44.8483   31.6876 C   0  0  0  0  0  0  0  0  0  0  0  0
    8.7928   45.8410   31.0846 C   0  0  0  0  0  0  0  0  0  0  0  0
    7.4066   45.6014   31.0992 C   0  0  0  0  0  0  0  0  0  0  0  0
    9.2816   46.9876   30.4426 C   0  0  0  0  0  0  0  0  0  0  0  0
    6.5250   46.5011   30.4849 C   0  0  0  0  0  0  0  0  0  0  0  0
    8.4000   47.8871   29.8329 C   0  0  0  0  0  0  0  0  0  0  0  0
    7.0174   47.6575   29.8446 C   0  0  0  0  0  0  0  0  0  0  0  0
    6.1938   48.5990   29.2001 O   0  0  0  0  0  0  0  0  0  0  0  0
    4.7634   48.5884   29.0973 C   0  0  2  0  0  0  0  0  0  0  0  0
    4.1345   48.9206   30.4598 C   0  0  0  0  0  0  0  0  0  0  0  0
    4.2572   47.3241   28.4003 C   0  0  0  0  0  0  0  0  0  0  0  0
    3.2112   46.5467   28.9693 C   0  0  0  0  0  0  0  0  0  0  0  0
    4.8512   46.8838   27.1660 C   0  0  0  0  0  0  0  0  0  0  0  0
    2.8337   45.3704   28.3362 C   0  0  0  0  0  0  0  0  0  0  0  0
    4.4329   45.6684   26.5791 C   0  0  0  0  0  0  0  0  0  0  0  0
    5.8798   47.6402   26.5048 N   0  0  0  0  0  0  0  0  0  0  0  0
    1.8632   44.4642   28.7185 O   0  0  0  0  0  0  0  0  0  0  0  0
    3.4215   44.9474   27.1955 C   0  0  0  0  0  0  0  0  0  0  0  0
    6.8761   46.9856   25.8179 O   0  0  0  0  0  0  0  0  0  0  0  0
    5.7751   48.8771   26.3769 O   0  0  0  0  0  0  0  0  0  0  0  0
    1.8425   43.4042   27.7530 C   0  0  0  0  0  0  0  0  0  0  0  0
    2.8531   43.7527   26.7973 O   0  0  0  0  0  0  0  0  0  0  0  0
    8.8127   40.1848   34.2122 O   0  0  0  0  0  0  0  0  0  0  0  0
   11.2420   40.7941   33.3697 O   0  0  0  0  0  0  0  0  0  0  0  0
   10.9187   40.6911   31.9971 C   0  0  0  0  0  0  0  0  0  0  0  0
   11.5172   39.3815   31.4407 C   0  0  0  0  0  0  0  0  0  0  0  0
   12.7492   39.0856   32.0728 O   0  0  0  0  0  0  0  0  0  0  0  0
   10.6023   38.1908   31.6665 C   0  0  0  0  0  0  0  0  0  0  0  0
   12.9319   37.6781   32.0281 C   0  0  0  0  0  0  0  0  0  0  0  0
    9.6392   38.0798   30.6452 O   0  0  0  0  0  0  0  0  0  0  0  0
   11.5715   37.0166   31.7056 C   0  0  0  0  0  0  0  0  0  0  0  0
   13.4846   37.2121   33.3235 N   0  0  0  0  0  0  0  0  0  0  0  0
   11.6186   36.3384   30.4695 O   0  0  0  0  0  0  0  0  0  0  0  0
   14.4801   36.3321   33.5724 C   0  0  0  0  0  0  0  0  0  0  0  0
   13.1137   37.6275   34.5687 C   0  0  0  0  0  0  0  0  0  0  0  0
   15.2073   35.6153   32.6738 N   0  0  0  0  0  0  0  0  0  0  0  0
   14.6759   36.2308   34.9179 C   0  0  0  0  0  0  0  0  0  0  0  0
   13.8216   37.0452   35.5781 N   0  0  0  0  0  0  0  0  0  0  0  0
   16.1640   34.7602   33.1546 C   0  0  0  0  0  0  0  0  0  0  0  0
   15.6526   35.3508   35.4129 C   0  0  0  0  0  0  0  0  0  0  0  0
   16.3794   34.6317   34.5041 N   0  0  0  0  0  0  0  0  0  0  0  0
   15.8999   35.1935   36.8088 N   0  0  0  0  0  0  0  0  0  0  0  0
    9.0121   45.4315   33.6713 H   0  0  0  0  0  0  0  0  0  0  0  0
   11.8908   45.7659   32.9476 H   0  0  0  0  0  0  0  0  0  0  0  0
   10.7260   46.9687   33.1215 H   0  0  0  0  0  0  0  0  0  0  0  0
   10.7237   44.8823   31.1558 H   0  0  0  0  0  0  0  0  0  0  0  0
    9.3426   43.8331   31.4757 H   0  0  0  0  0  0  0  0  0  0  0  0
    7.0111   44.7154   31.5807 H   0  0  0  0  0  0  0  0  0  0  0  0
   10.3458   47.1860   30.4102 H   0  0  0  0  0  0  0  0  0  0  0  0
    5.4725   46.2751   30.5162 H   0  0  0  0  0  0  0  0  0  0  0  0
    8.7946   48.7673   29.3412 H   0  0  0  0  0  0  0  0  0  0  0  0
    4.4831   49.4383   28.4400 H   0  0  0  0  0  0  0  0  0  0  0  0
    3.0458   49.1092   30.3458 H   0  0  0  0  0  0  0  0  0  0  0  0
    4.2909   48.1087   31.1974 H   0  0  0  0  0  0  0  0  0  0  0  0
    4.5966   49.8461   30.8641 H   0  0  0  0  0  0  0  0  0  0  0  0
    2.7111   46.8220   29.8861 H   0  0  0  0  0  0  0  0  0  0  0  0
    4.8695   45.3077   25.6568 H   0  0  0  0  0  0  0  0  0  0  0  0
    2.0914   42.4374   28.2386 H   0  0  0  0  0  0  0  0  0  0  0  0
    0.8494   43.3535   27.2594 H   0  0  0  0  0  0  0  0  0  0  0  0
    9.8299   40.7410   31.7613 H   0  0  0  0  0  0  0  0  0  0  0  0
   11.3968   41.5460   31.4729 H   0  0  0  0  0  0  0  0  0  0  0  0
   11.6974   39.5067   30.3481 H   0  0  0  0  0  0  0  0  0  0  0  0
   10.1076   38.2648   32.6645 H   0  0  0  0  0  0  0  0  0  0  0  0
   13.6621   37.4467   31.2209 H   0  0  0  0  0  0  0  0  0  0  0  0
    8.8975   38.6945   30.8830 H   0  0  0  0  0  0  0  0  0  0  0  0
   11.2806   36.3073   32.5170 H   0  0  0  0  0  0  0  0  0  0  0  0
   10.8492   35.7111   30.4586 H   0  0  0  0  0  0  0  0  0  0  0  0
   12.3290   38.3524   34.7444 H   0  0  0  0  0  0  0  0  0  0  0  0
   16.7559   34.1780   32.4619 H   0  0  0  0  0  0  0  0  0  0  0  0
   15.3532   35.7362   37.5137 H   0  0  0  0  0  0  0  0  0  0  0  0
   16.6344   34.5301   37.1414 H   0  0  0  0  0  0  0  0  0  0  0  0
  1  2  2  0
  1  3  1  0
  3  4  1  0
  4  5  1  0
  6  1  1  0
  7  6  1  0
  6  8  1  0
  8  9  1  0
  9 10  2  0
 11  9  1  0
 10 12  1  0
 13 11  2  0
 12 14  2  0
 14 13  1  0
 14 15  1  0
 15 16  1  0
 16 17  1  0
 16 18  1  0
 18 19  2  0
 20 18  1  0
 19 21  1  0
 22 20  2  0
 20 23  1  0
 21 24  1  0
 21 25  2  0
 25 22  1  0
 23 26  1  0
 23 27  2  0
 24 28  1  0
 25 29  1  0
 28 29  1  0
  4 30  2  0
  4 31  1  0
 32 31  1  0
 32 33  1  0
 33 34  1  0
 33 35  1  0
 34 36  1  0
 35 37  1  0
 35 38  1  0
 38 36  1  0
 36 39  1  0
 38 40  1  0
 41 39  1  0
 42 39  1  0
 43 41  2  0
 41 44  1  0
 45 42  2  0
 46 43  1  0
 44 47  2  0
 44 45  1  0
 48 46  2  0
 48 47  1  0
 47 49  1  0
  6 50  1  1
  7 51  1  0
  7 52  1  0
  8 53  1  0
  8 54  1  0
 10 55  1  0
 11 56  1  0
 12 57  1  0
 13 58  1  0
 16 59  1  6
 17 60  1  0
 17 61  1  0
 17 62  1  0
 19 63  1  0
 22 64  1  0
 28 65  1  0
 28 66  1  0
 32 67  1  0
 32 68  1  0
 33 69  1  0
 35 70  1  0
 36 71  1  0
 37 72  1  0
 38 73  1  0
 40 74  1  0
 42 75  1  0
 46 76  1  0
 49 77  1  0
 49 78  1  0
M  CHG  3   5  -1  23   1  26  -1
M  END
>  <EmbedRMS>  (165) 
0.0829221628659

$$$$

     RDKit          3D

 78 83  0  0  0  0  0  0  0  0999 V2000
   10.2839   43.7626   33.8275 C   0  0  0  0  0  0  0  0  0  0  0  0
   11.4103   43.5864   34.3767 O   0  0  0  0  0  0  0  0  0  0  0  0
    9.3633   42.7234   33.7351 O   0  0  0  0  0  0  0  0  0  0  0  0
    9.8899   41.2247   34.2940 P   0  0  0  0  0  0  0  0  0  0  0  0
   10.3723   41.4545   35.8837 O   0  0  0  0  0  0  0  0  0  0  0  0
    9.9548   45.0700   33.2064 C   0  0  1  0  0  0  0  0  0  0  0  0
   11.0196   46.0482   33.4572 N   0  0  0  0  0  0  0  0  0  0  0  0
    9.7506   44.8512   31.6923 C   0  0  0  0  0  0  0  0  0  0  0  0
    8.7944   45.8418   31.0868 C   0  0  0  0  0  0  0  0  0  0  0  0
    7.4077   45.6002   31.1000 C   0  0  0  0  0  0  0  0  0  0  0  0
    9.2827   46.9890   30.4440 C   0  0  0  0  0  0  0  0  0  0  0  0
    6.5258   46.4992   30.4847 C   0  0  0  0  0  0  0  0  0  0  0  0
    8.4010   47.8879   29.8327 C   0  0  0  0  0  0  0  0  0  0  0  0
    7.0194   47.6562   29.8476 C   0  0  0  0  0  0  0  0  0  0  0  0
    6.1813   48.5988   29.2290 O   0  0  0  0  0  0  0  0  0  0  0  0
    4.7530   48.5469   29.2100 C   0  0  2  0  0  0  0  0  0  0  0  0
    4.2088   49.5792   28.2233 C   0  0  0  0  0  0  0  0  0  0  0  0
    4.1467   48.7556   30.5904 C   0  0  0  0  0  0  0  0  0  0  0  0
    2.9285   48.0887   30.8671 C   0  0  0  0  0  0  0  0  0  0  0  0
    4.7629   49.5437   31.6240 C   0  0  0  0  0  0  0  0  0  0  0  0
    2.3827   48.1966   32.1388 C   0  0  0  0  0  0  0  0  0  0  0  0
    4.1658   49.6026   32.9045 C   0  0  0  0  0  0  0  0  0  0  0  0
    5.9800   50.2742   31.4060 N   0  0  0  0  0  0  0  0  0  0  0  0
    1.2207   47.6294   32.6257 O   0  0  0  0  0  0  0  0  0  0  0  0
    2.9771   48.9181   33.1155 C   0  0  0  0  0  0  0  0  0  0  0  0
    6.0984   51.1232   30.3314 O   0  0  0  0  0  0  0  0  0  0  0  0
    6.8534   50.3073   32.2974 O   0  0  0  0  0  0  0  0  0  0  0  0
    1.0781   48.0221   33.9976 C   0  0  0  0  0  0  0  0  0  0  0  0
    2.2211   48.8445   34.2696 O   0  0  0  0  0  0  0  0  0  0  0  0
    8.8119   40.1831   34.2121 O   0  0  0  0  0  0  0  0  0  0  0  0
   11.2415   40.7932   33.3699 O   0  0  0  0  0  0  0  0  0  0  0  0
   10.9186   40.6909   31.9972 C   0  0  0  0  0  0  0  0  0  0  0  0
   11.5172   39.3814   31.4407 C   0  0  0  0  0  0  0  0  0  0  0  0
   12.7493   39.0855   32.0727 O   0  0  0  0  0  0  0  0  0  0  0  0
   10.6023   38.1907   31.6665 C   0  0  0  0  0  0  0  0  0  0  0  0
   12.9319   37.6781   32.0281 C   0  0  0  0  0  0  0  0  0  0  0  0
    9.6392   38.0797   30.6452 O   0  0  0  0  0  0  0  0  0  0  0  0
   11.5715   37.0165   31.7056 C   0  0  0  0  0  0  0  0  0  0  0  0
   13.4847   37.2121   33.3235 N   0  0  0  0  0  0  0  0  0  0  0  0
   11.6187   36.3383   30.4694 O   0  0  0  0  0  0  0  0  0  0  0  0
   14.4801   36.3321   33.5724 C   0  0  0  0  0  0  0  0  0  0  0  0
   13.1137   37.6276   34.5687 C   0  0  0  0  0  0  0  0  0  0  0  0
   15.2073   35.6153   32.6738 N   0  0  0  0  0  0  0  0  0  0  0  0
   14.6759   36.2308   34.9179 C   0  0  0  0  0  0  0  0  0  0  0  0
   13.8216   37.0452   35.5781 N   0  0  0  0  0  0  0  0  0  0  0  0
   16.1640   34.7601   33.1546 C   0  0  0  0  0  0  0  0  0  0  0  0
   15.6526   35.3508   35.4129 C   0  0  0  0  0  0  0  0  0  0  0  0
   16.3794   34.6317   34.5041 N   0  0  0  0  0  0  0  0  0  0  0  0
   15.8999   35.1935   36.8088 N   0  0  0  0  0  0  0  0  0  0  0  0
    9.0097   45.4348   33.6669 H   0  0  0  0  0  0  0  0  0  0  0  0
   11.1128   46.1994   34.4885 H   0  0  0  0  0  0  0  0  0  0  0  0
   11.9348   45.6935   33.0931 H   0  0  0  0  0  0  0  0  0  0  0  0
    9.3520   43.8345   31.4758 H   0  0  0  0  0  0  0  0  0  0  0  0
   10.7310   44.8933   31.1677 H   0  0  0  0  0  0  0  0  0  0  0  0
    7.0127   44.7145   31.5825 H   0  0  0  0  0  0  0  0  0  0  0  0
   10.3467   47.1895   30.4148 H   0  0  0  0  0  0  0  0  0  0  0  0
    5.4674   46.2828   30.5139 H   0  0  0  0  0  0  0  0  0  0  0  0
    8.7933   48.7720   29.3463 H   0  0  0  0  0  0  0  0  0  0  0  0
    4.4543   47.5492   28.8164 H   0  0  0  0  0  0  0  0  0  0  0  0
    4.4204   50.6134   28.5602 H   0  0  0  0  0  0  0  0  0  0  0  0
    3.1092   49.4607   28.1165 H   0  0  0  0  0  0  0  0  0  0  0  0
    4.6748   49.4275   27.2266 H   0  0  0  0  0  0  0  0  0  0  0  0
    2.4288   47.4899   30.1158 H   0  0  0  0  0  0  0  0  0  0  0  0
    4.6079   50.1810   33.7056 H   0  0  0  0  0  0  0  0  0  0  0  0
    1.0841   47.1280   34.6557 H   0  0  0  0  0  0  0  0  0  0  0  0
    0.1442   48.6065   34.1347 H   0  0  0  0  0  0  0  0  0  0  0  0
   11.3971   41.5459   31.4735 H   0  0  0  0  0  0  0  0  0  0  0  0
    9.8300   40.7410   31.7610 H   0  0  0  0  0  0  0  0  0  0  0  0
   11.6974   39.5067   30.3480 H   0  0  0  0  0  0  0  0  0  0  0  0
   10.1077   38.2647   32.6645 H   0  0  0  0  0  0  0  0  0  0  0  0
   13.6621   37.4467   31.2208 H   0  0  0  0  0  0  0  0  0  0  0  0
    8.8974   38.6943   30.8831 H   0  0  0  0  0  0  0  0  0  0  0  0
   11.2806   36.3073   32.5170 H   0  0  0  0  0  0  0  0  0  0  0  0
   10.8492   35.7110   30.4585 H   0  0  0  0  0  0  0  0  0  0  0  0
   12.3290   38.3524   34.7444 H   0  0  0  0  0  0  0  0  0  0  0  0
   16.7559   34.1780   32.4619 H   0  0  0  0  0  0  0  0  0  0  0  0
   15.3532   35.7362   37.5137 H   0  0  0  0  0  0  0  0  0  0  0  0
   16.6344   34.5301   37.1414 H   0  0  0  0  0  0  0  0  0  0  0  0
  1  2  2  0
  1  3  1  0
  3  4  1  0
  4  5  1  0
  6  1  1  0
  7  6  1  0
  6  8  1  0
  8  9  1  0
  9 10  2  0
 11  9  1  0
 10 12  1  0
 13 11  2  0
 12 14  2  0
 14 13  1  0
 14 15  1  0
 15 16  1  0
 16 17  1  0
 16 18  1  0
 18 19  2  0
 20 18  1  0
 19 21  1  0
 22 20  2  0
 20 23  1  0
 21 24  1  0
 21 25  2  0
 25 22  1  0
 23 26  1  0
 23 27  2  0
 24 28  1  0
 25 29  1  0
 28 29  1  0
  4 30  2  0
  4 31  1  0
 32 31  1  0
 32 33  1  0
 33 34  1  0
 33 35  1  0
 34 36  1  0
 35 37  1  0
 35 38  1  0
 38 36  1  0
 36 39  1  0
 38 40  1  0
 41 39  1  0
 42 39  1  0
 43 41  2  0
 41 44  1  0
 45 42  2  0
 46 43  1  0
 44 47  2  0
 44 45  1  0
 48 46  2  0
 48 47  1  0
 47 49  1  0
  6 50  1  1
  7 51  1  0
  7 52  1  0
  8 53  1  0
  8 54  1  0
 10 55  1  0
 11 56  1  0
 12 57  1  0
 13 58  1  0
 16 59  1  6
 17 60  1  0
 17 61  1  0
 17 62  1  0
 19 63  1  0
 22 64  1  0
 28 65  1  0
 28 66  1  0
 32 67  1  0
 32 68  1  0
 33 69  1  0
 35 70  1  0
 36 71  1  0
 37 72  1  0
 38 73  1  0
 40 74  1  0
 42 75  1  0
 46 76  1  0
 49 77  1  0
 49 78  1  0
M  CHG  3   5  -1  23   1  26  -1
M  END
>  <EmbedRMS>  (166) 
0.0838249531026

$$$$

     RDKit          3D

 78 83  0  0  0  0  0  0  0  0999 V2000
   10.2803   43.7665   33.8251 C   0  0  0  0  0  0  0  0  0  0  0  0
   11.4110   43.5919   34.3667 O   0  0  0  0  0  0  0  0  0  0  0  0
    9.3617   42.7250   33.7346 O   0  0  0  0  0  0  0  0  0  0  0  0
    9.8902   41.2265   34.2931 P   0  0  0  0  0  0  0  0  0  0  0  0
   10.3743   41.4562   35.8824 O   0  0  0  0  0  0  0  0  0  0  0  0
    9.9458   45.0736   33.2112 C   0  0  1  0  0  0  0  0  0  0  0  0
   11.0266   46.0292   33.4705 N   0  0  0  0  0  0  0  0  0  0  0  0
    9.7536   44.8536   31.6950 C   0  0  0  0  0  0  0  0  0  0  0  0
    8.7955   45.8405   31.0846 C   0  0  0  0  0  0  0  0  0  0  0  0
    7.4093   45.6003   31.1004 C   0  0  0  0  0  0  0  0  0  0  0  0
    9.2824   46.9869   30.4400 C   0  0  0  0  0  0  0  0  0  0  0  0
    6.5295   46.5013   30.4854 C   0  0  0  0  0  0  0  0  0  0  0  0
    8.4023   47.8886   29.8306 C   0  0  0  0  0  0  0  0  0  0  0  0
    7.0124   47.6529   29.8477 C   0  0  0  0  0  0  0  0  0  0  0  0
    6.0698   48.5201   29.2647 O   0  0  0  0  0  0  0  0  0  0  0  0
    6.3221   49.7398   28.5539 C   0  0  2  0  0  0  0  0  0  0  0  0
    6.9301   49.4309   27.1765 C   0  0  0  0  0  0  0  0  0  0  0  0
    7.0716   50.7536   29.4207 C   0  0  0  0  0  0  0  0  0  0  0  0
    8.2318   51.4145   28.9317 C   0  0  0  0  0  0  0  0  0  0  0  0
    6.6293   51.0364   30.7603 C   0  0  0  0  0  0  0  0  0  0  0  0
    8.9181   52.2731   29.7795 C   0  0  0  0  0  0  0  0  0  0  0  0
    7.3812   51.9087   31.5791 C   0  0  0  0  0  0  0  0  0  0  0  0
    5.4394   50.4444   31.3091 N   0  0  0  0  0  0  0  0  0  0  0  0
   10.0649   52.9991   29.5201 O   0  0  0  0  0  0  0  0  0  0  0  0
    8.5143   52.5057   31.0478 C   0  0  0  0  0  0  0  0  0  0  0  0
    5.3865   50.1294   32.6474 O   0  0  0  0  0  0  0  0  0  0  0  0
    4.3886   50.3933   30.6381 O   0  0  0  0  0  0  0  0  0  0  0  0
   10.4005   53.7346   30.7044 C   0  0  0  0  0  0  0  0  0  0  0  0
    9.3839   53.3907   31.6556 O   0  0  0  0  0  0  0  0  0  0  0  0
    8.8124   40.1844   34.2130 O   0  0  0  0  0  0  0  0  0  0  0  0
   11.2401   40.7949   33.3666 O   0  0  0  0  0  0  0  0  0  0  0  0
   10.9124   40.6859   31.9952 C   0  0  0  0  0  0  0  0  0  0  0  0
   11.5174   39.3786   31.4406 C   0  0  0  0  0  0  0  0  0  0  0  0
   12.7489   39.0864   32.0753 O   0  0  0  0  0  0  0  0  0  0  0  0
   10.6060   38.1868   31.6656 C   0  0  0  0  0  0  0  0  0  0  0  0
   12.9356   37.6796   32.0293 C   0  0  0  0  0  0  0  0  0  0  0  0
    9.6399   38.0902   30.6471 O   0  0  0  0  0  0  0  0  0  0  0  0
   11.5765   37.0146   31.7044 C   0  0  0  0  0  0  0  0  0  0  0  0
   13.4858   37.2125   33.3244 N   0  0  0  0  0  0  0  0  0  0  0  0
   11.6101   36.3397   30.4673 O   0  0  0  0  0  0  0  0  0  0  0  0
   14.4805   36.3319   33.5729 C   0  0  0  0  0  0  0  0  0  0  0  0
   13.1144   37.6276   34.5694 C   0  0  0  0  0  0  0  0  0  0  0  0
   15.2076   35.6154   32.6741 N   0  0  0  0  0  0  0  0  0  0  0  0
   14.6760   36.2304   34.9183 C   0  0  0  0  0  0  0  0  0  0  0  0
   13.8219   37.0449   35.5786 N   0  0  0  0  0  0  0  0  0  0  0  0
   16.1641   34.7600   33.1548 C   0  0  0  0  0  0  0  0  0  0  0  0
   15.6527   35.3505   35.4132 C   0  0  0  0  0  0  0  0  0  0  0  0
   16.3795   34.6314   34.5043 N   0  0  0  0  0  0  0  0  0  0  0  0
   15.9001   35.1932   36.8091 N   0  0  0  0  0  0  0  0  0  0  0  0
    8.9995   45.4384   33.6721 H   0  0  0  0  0  0  0  0  0  0  0  0
   10.7763   46.9369   33.0155 H   0  0  0  0  0  0  0  0  0  0  0  0
   11.0504   46.2278   34.4979 H   0  0  0  0  0  0  0  0  0  0  0  0
   10.7407   44.9069   31.1836 H   0  0  0  0  0  0  0  0  0  0  0  0
    9.3639   43.8349   31.4715 H   0  0  0  0  0  0  0  0  0  0  0  0
    7.0133   44.7163   31.5849 H   0  0  0  0  0  0  0  0  0  0  0  0
   10.3466   47.1859   30.4078 H   0  0  0  0  0  0  0  0  0  0  0  0
    5.4650   46.3048   30.5082 H   0  0  0  0  0  0  0  0  0  0  0  0
    8.8233   48.7583   29.3551 H   0  0  0  0  0  0  0  0  0  0  0  0
    5.3325   50.1925   28.3328 H   0  0  0  0  0  0  0  0  0  0  0  0
    6.3041   48.6742   26.6577 H   0  0  0  0  0  0  0  0  0  0  0  0
    6.9434   50.3462   26.5474 H   0  0  0  0  0  0  0  0  0  0  0  0
    7.9587   49.0272   27.2587 H   0  0  0  0  0  0  0  0  0  0  0  0
    8.6147   51.2609   27.9335 H   0  0  0  0  0  0  0  0  0  0  0  0
    7.0779   52.1311   32.5940 H   0  0  0  0  0  0  0  0  0  0  0  0
   11.3978   53.4234   31.0801 H   0  0  0  0  0  0  0  0  0  0  0  0
   10.3793   54.8252   30.4983 H   0  0  0  0  0  0  0  0  0  0  0  0
    9.8214   40.7198   31.7634 H   0  0  0  0  0  0  0  0  0  0  0  0
   11.3802   41.5436   31.4661 H   0  0  0  0  0  0  0  0  0  0  0  0
   11.6999   39.5041   30.3482 H   0  0  0  0  0  0  0  0  0  0  0  0
   10.1085   38.2767   32.6604 H   0  0  0  0  0  0  0  0  0  0  0  0
   13.6680   37.4521   31.2230 H   0  0  0  0  0  0  0  0  0  0  0  0
    9.0016   37.3868   30.9349 H   0  0  0  0  0  0  0  0  0  0  0  0
   11.2666   36.3062   32.5084 H   0  0  0  0  0  0  0  0  0  0  0  0
   12.1389   35.5127   30.6150 H   0  0  0  0  0  0  0  0  0  0  0  0
   12.3300   38.3529   34.7449 H   0  0  0  0  0  0  0  0  0  0  0  0
   16.7561   34.1779   32.4620 H   0  0  0  0  0  0  0  0  0  0  0  0
   16.6347   34.5299   37.1416 H   0  0  0  0  0  0  0  0  0  0  0  0
   15.3534   35.7360   37.5139 H   0  0  0  0  0  0  0  0  0  0  0  0
  1  2  2  0
  1  3  1  0
  3  4  1  0
  4  5  1  0
  6  1  1  0
  7  6  1  0
  6  8  1  0
  8  9  1  0
  9 10  2  0
 11  9  1  0
 10 12  1  0
 13 11  2  0
 12 14  2  0
 14 13  1  0
 14 15  1  0
 15 16  1  0
 16 17  1  0
 16 18  1  0
 18 19  2  0
 20 18  1  0
 19 21  1  0
 22 20  2  0
 20 23  1  0
 21 24  1  0
 21 25  2  0
 25 22  1  0
 23 26  1  0
 23 27  2  0
 24 28  1  0
 25 29  1  0
 28 29  1  0
  4 30  2  0
  4 31  1  0
 32 31  1  0
 32 33  1  0
 33 34  1  0
 33 35  1  0
 34 36  1  0
 35 37  1  0
 35 38  1  0
 38 36  1  0
 36 39  1  0
 38 40  1  0
 41 39  1  0
 42 39  1  0
 43 41  2  0
 41 44  1  0
 45 42  2  0
 46 43  1  0
 44 47  2  0
 44 45  1  0
 48 46  2  0
 48 47  1  0
 47 49  1  0
  6 50  1  1
  7 51  1  0
  7 52  1  0
  8 53  1  0
  8 54  1  0
 10 55  1  0
 11 56  1  0
 12 57  1  0
 13 58  1  0
 16 59  1  6
 17 60  1  0
 17 61  1  0
 17 62  1  0
 19 63  1  0
 22 64  1  0
 28 65  1  0
 28 66  1  0
 32 67  1  0
 32 68  1  0
 33 69  1  0
 35 70  1  0
 36 71  1  0
 37 72  1  0
 38 73  1  0
 40 74  1  0
 42 75  1  0
 46 76  1  0
 49 77  1  0
 49 78  1  0
M  CHG  3   5  -1  23   1  26  -1
M  END
>  <EmbedRMS>  (167) 
0.0822171849735

$$$$

     RDKit          3D

 78 83  0  0  0  0  0  0  0  0999 V2000
   10.2804   43.7664   33.8249 C   0  0  0  0  0  0  0  0  0  0  0  0
   11.4110   43.5919   34.3667 O   0  0  0  0  0  0  0  0  0  0  0  0
    9.3620   42.7248   33.7343 O   0  0  0  0  0  0  0  0  0  0  0  0
    9.8903   41.2265   34.2936 P   0  0  0  0  0  0  0  0  0  0  0  0
   10.3732   41.4565   35.8831 O   0  0  0  0  0  0  0  0  0  0  0  0
    9.9458   45.0737   33.2112 C   0  0  1  0  0  0  0  0  0  0  0  0
   11.0264   46.0294   33.4709 N   0  0  0  0  0  0  0  0  0  0  0  0
    9.7541   44.8542   31.6948 C   0  0  0  0  0  0  0  0  0  0  0  0
    8.7957   45.8411   31.0846 C   0  0  0  0  0  0  0  0  0  0  0  0
    7.4090   45.5997   31.1008 C   0  0  0  0  0  0  0  0  0  0  0  0
    9.2825   46.9876   30.4390 C   0  0  0  0  0  0  0  0  0  0  0  0
    6.5260   46.4983   30.4861 C   0  0  0  0  0  0  0  0  0  0  0  0
    8.3998   47.8871   29.8305 C   0  0  0  0  0  0  0  0  0  0  0  0
    7.0184   47.6555   29.8481 C   0  0  0  0  0  0  0  0  0  0  0  0
    6.1790   48.5981   29.2314 O   0  0  0  0  0  0  0  0  0  0  0  0
    4.7506   48.5476   29.2177 C   0  0  2  0  0  0  0  0  0  0  0  0
    4.2037   49.5801   28.2327 C   0  0  0  0  0  0  0  0  0  0  0  0
    4.1495   48.7571   30.6002 C   0  0  0  0  0  0  0  0  0  0  0  0
    2.9318   48.0914   30.8817 C   0  0  0  0  0  0  0  0  0  0  0  0
    4.7704   49.5450   31.6314 C   0  0  0  0  0  0  0  0  0  0  0  0
    2.3908   48.2002   32.1554 C   0  0  0  0  0  0  0  0  0  0  0  0
    4.1781   49.6047   32.9141 C   0  0  0  0  0  0  0  0  0  0  0  0
    5.9874   50.2742   31.4086 N   0  0  0  0  0  0  0  0  0  0  0  0
    1.2302   47.6342   32.6468 O   0  0  0  0  0  0  0  0  0  0  0  0
    2.9896   48.9214   33.1296 C   0  0  0  0  0  0  0  0  0  0  0  0
    6.1025   51.1230   30.3335 O   0  0  0  0  0  0  0  0  0  0  0  0
    6.8642   50.3063   32.2967 O   0  0  0  0  0  0  0  0  0  0  0  0
    1.0931   48.0275   34.0191 C   0  0  0  0  0  0  0  0  0  0  0  0
    2.2378   48.8489   34.2866 O   0  0  0  0  0  0  0  0  0  0  0  0
    8.8128   40.1842   34.2125 O   0  0  0  0  0  0  0  0  0  0  0  0
   11.2416   40.7945   33.3692 O   0  0  0  0  0  0  0  0  0  0  0  0
   10.9177   40.6904   31.9968 C   0  0  0  0  0  0  0  0  0  0  0  0
   11.5181   39.3813   31.4408 C   0  0  0  0  0  0  0  0  0  0  0  0
   12.7497   39.0870   32.0746 O   0  0  0  0  0  0  0  0  0  0  0  0
   10.6045   38.1891   31.6655 C   0  0  0  0  0  0  0  0  0  0  0  0
   12.9344   37.6801   32.0290 C   0  0  0  0  0  0  0  0  0  0  0  0
    9.6418   38.0758   30.6441 O   0  0  0  0  0  0  0  0  0  0  0  0
   11.5741   37.0170   31.7045 C   0  0  0  0  0  0  0  0  0  0  0  0
   13.4851   37.2126   33.3241 N   0  0  0  0  0  0  0  0  0  0  0  0
   11.6079   36.3407   30.4680 O   0  0  0  0  0  0  0  0  0  0  0  0
   14.4801   36.3321   33.5727 C   0  0  0  0  0  0  0  0  0  0  0  0
   13.1140   37.6277   34.5693 C   0  0  0  0  0  0  0  0  0  0  0  0
   15.2073   35.6155   32.6739 N   0  0  0  0  0  0  0  0  0  0  0  0
   14.6758   36.2306   34.9182 C   0  0  0  0  0  0  0  0  0  0  0  0
   13.8217   37.0451   35.5785 N   0  0  0  0  0  0  0  0  0  0  0  0
   16.1639   34.7602   33.1546 C   0  0  0  0  0  0  0  0  0  0  0  0
   15.6526   35.3506   35.4130 C   0  0  0  0  0  0  0  0  0  0  0  0
   16.3794   34.6316   34.5041 N   0  0  0  0  0  0  0  0  0  0  0  0
   15.9001   35.1933   36.8089 N   0  0  0  0  0  0  0  0  0  0  0  0
    8.9993   45.4381   33.6720 H   0  0  0  0  0  0  0  0  0  0  0  0
   11.0499   46.2278   34.4984 H   0  0  0  0  0  0  0  0  0  0  0  0
   10.7760   46.9371   33.0161 H   0  0  0  0  0  0  0  0  0  0  0  0
   10.7413   44.9081   31.1837 H   0  0  0  0  0  0  0  0  0  0  0  0
    9.3648   43.8354   31.4710 H   0  0  0  0  0  0  0  0  0  0  0  0
    7.0150   44.7149   31.5855 H   0  0  0  0  0  0  0  0  0  0  0  0
   10.3463   47.1878   30.4052 H   0  0  0  0  0  0  0  0  0  0  0  0
    5.4677   46.2821   30.5174 H   0  0  0  0  0  0  0  0  0  0  0  0
    8.7912   48.7710   29.3430 H   0  0  0  0  0  0  0  0  0  0  0  0
    4.4495   47.5501   28.8254 H   0  0  0  0  0  0  0  0  0  0  0  0
    4.6659   49.4277   27.2344 H   0  0  0  0  0  0  0  0  0  0  0  0
    3.1036   49.4626   28.1300 H   0  0  0  0  0  0  0  0  0  0  0  0
    4.4175   50.6142   28.5686 H   0  0  0  0  0  0  0  0  0  0  0  0
    2.4288   47.4929   30.1324 H   0  0  0  0  0  0  0  0  0  0  0  0
    4.6238   50.1829   33.7134 H   0  0  0  0  0  0  0  0  0  0  0  0
    0.1602   48.6128   34.1595 H   0  0  0  0  0  0  0  0  0  0  0  0
    1.1006   47.1336   34.6774 H   0  0  0  0  0  0  0  0  0  0  0  0
   11.3944   41.5458   31.4719 H   0  0  0  0  0  0  0  0  0  0  0  0
    9.8288   40.7385   31.7615 H   0  0  0  0  0  0  0  0  0  0  0  0
   11.6994   39.5068   30.3484 H   0  0  0  0  0  0  0  0  0  0  0  0
   10.1090   38.2634   32.6632 H   0  0  0  0  0  0  0  0  0  0  0  0
   13.6662   37.4515   31.2224 H   0  0  0  0  0  0  0  0  0  0  0  0
    8.9008   38.6923   30.8794 H   0  0  0  0  0  0  0  0  0  0  0  0
   11.2650   36.3083   32.5087 H   0  0  0  0  0  0  0  0  0  0  0  0
   12.1372   35.5141   30.6163 H   0  0  0  0  0  0  0  0  0  0  0  0
   12.3297   38.3530   34.7450 H   0  0  0  0  0  0  0  0  0  0  0  0
   16.7558   34.1781   32.4619 H   0  0  0  0  0  0  0  0  0  0  0  0
   16.6346   34.5300   37.1414 H   0  0  0  0  0  0  0  0  0  0  0  0
   15.3533   35.7360   37.5138 H   0  0  0  0  0  0  0  0  0  0  0  0
  1  2  2  0
  1  3  1  0
  3  4  1  0
  4  5  1  0
  6  1  1  0
  7  6  1  0
  6  8  1  0
  8  9  1  0
  9 10  2  0
 11  9  1  0
 10 12  1  0
 13 11  2  0
 12 14  2  0
 14 13  1  0
 14 15  1  0
 15 16  1  0
 16 17  1  0
 16 18  1  0
 18 19  2  0
 20 18  1  0
 19 21  1  0
 22 20  2  0
 20 23  1  0
 21 24  1  0
 21 25  2  0
 25 22  1  0
 23 26  1  0
 23 27  2  0
 24 28  1  0
 25 29  1  0
 28 29  1  0
  4 30  2  0
  4 31  1  0
 32 31  1  0
 32 33  1  0
 33 34  1  0
 33 35  1  0
 34 36  1  0
 35 37  1  0
 35 38  1  0
 38 36  1  0
 36 39  1  0
 38 40  1  0
 41 39  1  0
 42 39  1  0
 43 41  2  0
 41 44  1  0
 45 42  2  0
 46 43  1  0
 44 47  2  0
 44 45  1  0
 48 46  2  0
 48 47  1  0
 47 49  1  0
  6 50  1  1
  7 51  1  0
  7 52  1  0
  8 53  1  0
  8 54  1  0
 10 55  1  0
 11 56  1  0
 12 57  1  0
 13 58  1  0
 16 59  1  6
 17 60  1  0
 17 61  1  0
 17 62  1  0
 19 63  1  0
 22 64  1  0
 28 65  1  0
 28 66  1  0
 32 67  1  0
 32 68  1  0
 33 69  1  0
 35 70  1  0
 36 71  1  0
 37 72  1  0
 38 73  1  0
 40 74  1  0
 42 75  1  0
 46 76  1  0
 49 77  1  0
 49 78  1  0
M  CHG  3   5  -1  23   1  26  -1
M  END
>  <EmbedRMS>  (168) 
0.0826578866902

$$$$

     RDKit          3D

 78 83  0  0  0  0  0  0  0  0999 V2000
   10.2804   43.7664   33.8250 C   0  0  0  0  0  0  0  0  0  0  0  0
   11.4110   43.5918   34.3667 O   0  0  0  0  0  0  0  0  0  0  0  0
    9.3619   42.7249   33.7344 O   0  0  0  0  0  0  0  0  0  0  0  0
    9.8903   41.2265   34.2931 P   0  0  0  0  0  0  0  0  0  0  0  0
   10.3742   41.4563   35.8824 O   0  0  0  0  0  0  0  0  0  0  0  0
    9.9460   45.0736   33.2112 C   0  0  1  0  0  0  0  0  0  0  0  0
   11.0267   46.0292   33.4709 N   0  0  0  0  0  0  0  0  0  0  0  0
    9.7543   44.8540   31.6948 C   0  0  0  0  0  0  0  0  0  0  0  0
    8.7962   45.8410   31.0847 C   0  0  0  0  0  0  0  0  0  0  0  0
    7.4100   45.6008   31.1010 C   0  0  0  0  0  0  0  0  0  0  0  0
    9.2823   46.9874   30.4401 C   0  0  0  0  0  0  0  0  0  0  0  0
    6.5269   46.4998   30.4866 C   0  0  0  0  0  0  0  0  0  0  0  0
    8.3989   47.8860   29.8320 C   0  0  0  0  0  0  0  0  0  0  0  0
    7.0162   47.6555   29.8448 C   0  0  0  0  0  0  0  0  0  0  0  0
    6.1947   48.6002   29.2025 O   0  0  0  0  0  0  0  0  0  0  0  0
    4.7690   48.5908   29.0562 C   0  0  2  0  0  0  0  0  0  0  0  0
    4.0877   48.8905   30.4005 C   0  0  0  0  0  0  0  0  0  0  0  0
    4.2696   47.3576   28.3027 C   0  0  0  0  0  0  0  0  0  0  0  0
    3.4072   46.4153   28.9279 C   0  0  0  0  0  0  0  0  0  0  0  0
    4.5918   47.1786   26.9144 C   0  0  0  0  0  0  0  0  0  0  0  0
    2.9385   45.3413   28.1833 C   0  0  0  0  0  0  0  0  0  0  0  0
    4.0720   46.0726   26.2052 C   0  0  0  0  0  0  0  0  0  0  0  0
    5.3916   48.1320   26.1993 N   0  0  0  0  0  0  0  0  0  0  0  0
    2.1114   44.3117   28.5896 O   0  0  0  0  0  0  0  0  0  0  0  0
    3.2575   45.1764   26.8805 C   0  0  0  0  0  0  0  0  0  0  0  0
    6.6771   48.3993   26.6056 O   0  0  0  0  0  0  0  0  0  0  0  0
    5.0236   48.5253   25.0732 O   0  0  0  0  0  0  0  0  0  0  0  0
    1.9007   43.4442   27.4673 C   0  0  0  0  0  0  0  0  0  0  0  0
    2.6498   44.0341   26.3961 O   0  0  0  0  0  0  0  0  0  0  0  0
    8.8124   40.1844   34.2129 O   0  0  0  0  0  0  0  0  0  0  0  0
   11.2404   40.7948   33.3668 O   0  0  0  0  0  0  0  0  0  0  0  0
   10.9133   40.6866   31.9952 C   0  0  0  0  0  0  0  0  0  0  0  0
   11.5166   39.3787   31.4404 C   0  0  0  0  0  0  0  0  0  0  0  0
   12.7485   39.0849   32.0735 O   0  0  0  0  0  0  0  0  0  0  0  0
   10.6039   38.1884   31.6669 C   0  0  0  0  0  0  0  0  0  0  0  0
   12.9329   37.6776   32.0284 C   0  0  0  0  0  0  0  0  0  0  0  0
    9.6373   38.0938   30.6484 O   0  0  0  0  0  0  0  0  0  0  0  0
   11.5737   37.0141   31.7055 C   0  0  0  0  0  0  0  0  0  0  0  0
   13.4853   37.2120   33.3238 N   0  0  0  0  0  0  0  0  0  0  0  0
   11.6210   36.3379   30.4683 O   0  0  0  0  0  0  0  0  0  0  0  0
   14.4804   36.3319   33.5726 C   0  0  0  0  0  0  0  0  0  0  0  0
   13.1141   37.6275   34.5689 C   0  0  0  0  0  0  0  0  0  0  0  0
   15.2076   35.6152   32.6740 N   0  0  0  0  0  0  0  0  0  0  0  0
   14.6761   36.2306   34.9181 C   0  0  0  0  0  0  0  0  0  0  0  0
   13.8218   37.0451   35.5783 N   0  0  0  0  0  0  0  0  0  0  0  0
   16.1642   34.7600   33.1548 C   0  0  0  0  0  0  0  0  0  0  0  0
   15.6527   35.3507   35.4131 C   0  0  0  0  0  0  0  0  0  0  0  0
   16.3795   34.6315   34.5043 N   0  0  0  0  0  0  0  0  0  0  0  0
   15.9000   35.1933   36.8090 N   0  0  0  0  0  0  0  0  0  0  0  0
    8.9995   45.4381   33.6720 H   0  0  0  0  0  0  0  0  0  0  0  0
   11.0501   46.2277   34.4983 H   0  0  0  0  0  0  0  0  0  0  0  0
   10.7765   46.9368   33.0159 H   0  0  0  0  0  0  0  0  0  0  0  0
   10.7415   44.9077   31.1837 H   0  0  0  0  0  0  0  0  0  0  0  0
    9.3648   43.8353   31.4710 H   0  0  0  0  0  0  0  0  0  0  0  0
    7.0158   44.7165   31.5866 H   0  0  0  0  0  0  0  0  0  0  0  0
   10.3461   47.1875   30.4052 H   0  0  0  0  0  0  0  0  0  0  0  0
    5.4770   46.2768   30.5278 H   0  0  0  0  0  0  0  0  0  0  0  0
    8.7923   48.7665   29.3399 H   0  0  0  0  0  0  0  0  0  0  0  0
    4.5128   49.4615   28.4141 H   0  0  0  0  0  0  0  0  0  0  0  0
    4.4469   49.8686   30.7852 H   0  0  0  0  0  0  0  0  0  0  0  0
    2.9870   48.9584   30.2663 H   0  0  0  0  0  0  0  0  0  0  0  0
    4.3168   48.1233   31.1654 H   0  0  0  0  0  0  0  0  0  0  0  0
    3.1043   46.4998   29.9615 H   0  0  0  0  0  0  0  0  0  0  0  0
    4.2999   45.9190   25.1581 H   0  0  0  0  0  0  0  0  0  0  0  0
    0.8222   43.4086   27.2065 H   0  0  0  0  0  0  0  0  0  0  0  0
    2.2865   42.4273   27.6901 H   0  0  0  0  0  0  0  0  0  0  0  0
    9.8224   40.7224   31.7629 H   0  0  0  0  0  0  0  0  0  0  0  0
   11.3826   41.5438   31.4666 H   0  0  0  0  0  0  0  0  0  0  0  0
   11.6979   39.5036   30.3478 H   0  0  0  0  0  0  0  0  0  0  0  0
   10.1084   38.2786   32.6626 H   0  0  0  0  0  0  0  0  0  0  0  0
   13.6638   37.4473   31.2214 H   0  0  0  0  0  0  0  0  0  0  0  0
    8.9763   37.4191   30.9532 H   0  0  0  0  0  0  0  0  0  0  0  0
   11.2821   36.3054   32.5171 H   0  0  0  0  0  0  0  0  0  0  0  0
   10.8658   35.6935   30.4652 H   0  0  0  0  0  0  0  0  0  0  0  0
   12.3293   38.3523   34.7445 H   0  0  0  0  0  0  0  0  0  0  0  0
   16.7561   34.1778   32.4621 H   0  0  0  0  0  0  0  0  0  0  0  0
   15.3533   35.7361   37.5138 H   0  0  0  0  0  0  0  0  0  0  0  0
   16.6345   34.5300   37.1416 H   0  0  0  0  0  0  0  0  0  0  0  0
  1  2  2  0
  1  3  1  0
  3  4  1  0
  4  5  1  0
  6  1  1  0
  7  6  1  0
  6  8  1  0
  8  9  1  0
  9 10  2  0
 11  9  1  0
 10 12  1  0
 13 11  2  0
 12 14  2  0
 14 13  1  0
 14 15  1  0
 15 16  1  0
 16 17  1  0
 16 18  1  0
 18 19  2  0
 20 18  1  0
 19 21  1  0
 22 20  2  0
 20 23  1  0
 21 24  1  0
 21 25  2  0
 25 22  1  0
 23 26  1  0
 23 27  2  0
 24 28  1  0
 25 29  1  0
 28 29  1  0
  4 30  2  0
  4 31  1  0
 32 31  1  0
 32 33  1  0
 33 34  1  0
 33 35  1  0
 34 36  1  0
 35 37  1  0
 35 38  1  0
 38 36  1  0
 36 39  1  0
 38 40  1  0
 41 39  1  0
 42 39  1  0
 43 41  2  0
 41 44  1  0
 45 42  2  0
 46 43  1  0
 44 47  2  0
 44 45  1  0
 48 46  2  0
 48 47  1  0
 47 49  1  0
  6 50  1  1
  7 51  1  0
  7 52  1  0
  8 53  1  0
  8 54  1  0
 10 55  1  0
 11 56  1  0
 12 57  1  0
 13 58  1  0
 16 59  1  6
 17 60  1  0
 17 61  1  0
 17 62  1  0
 19 63  1  0
 22 64  1  0
 28 65  1  0
 28 66  1  0
 32 67  1  0
 32 68  1  0
 33 69  1  0
 35 70  1  0
 36 71  1  0
 37 72  1  0
 38 73  1  0
 40 74  1  0
 42 75  1  0
 46 76  1  0
 49 77  1  0
 49 78  1  0
M  CHG  3   5  -1  23   1  26  -1
M  END
>  <EmbedRMS>  (169) 
0.0823705787481

$$$$

     RDKit          3D

 78 83  0  0  0  0  0  0  0  0999 V2000
   10.2835   43.7661   33.8256 C   0  0  0  0  0  0  0  0  0  0  0  0
   11.4102   43.5930   34.3752 O   0  0  0  0  0  0  0  0  0  0  0  0
    9.3638   42.7255   33.7349 O   0  0  0  0  0  0  0  0  0  0  0  0
    9.8903   41.2267   34.2942 P   0  0  0  0  0  0  0  0  0  0  0  0
   10.3735   41.4561   35.8837 O   0  0  0  0  0  0  0  0  0  0  0  0
    9.9548   45.0695   33.2035 C   0  0  1  0  0  0  0  0  0  0  0  0
   11.0274   46.0322   33.4758 N   0  0  0  0  0  0  0  0  0  0  0  0
    9.7471   44.8482   31.6874 C   0  0  0  0  0  0  0  0  0  0  0  0
    8.7926   45.8406   31.0840 C   0  0  0  0  0  0  0  0  0  0  0  0
    7.4060   45.6013   31.0995 C   0  0  0  0  0  0  0  0  0  0  0  0
    9.2817   46.9878   30.4425 C   0  0  0  0  0  0  0  0  0  0  0  0
    6.5241   46.5016   30.4858 C   0  0  0  0  0  0  0  0  0  0  0  0
    8.4005   47.8883   29.8334 C   0  0  0  0  0  0  0  0  0  0  0  0
    7.0185   47.6563   29.8438 C   0  0  0  0  0  0  0  0  0  0  0  0
    6.1874   48.5990   29.2156 O   0  0  0  0  0  0  0  0  0  0  0  0
    4.7760   48.4793   29.0190 C   0  0  2  0  0  0  0  0  0  0  0  0
    4.4747   47.4615   27.9106 C   0  0  0  0  0  0  0  0  0  0  0  0
    4.2188   49.8426   28.6505 C   0  0  0  0  0  0  0  0  0  0  0  0
    4.7311   50.4960   27.5016 C   0  0  0  0  0  0  0  0  0  0  0  0
    3.1688   50.4700   29.3997 C   0  0  0  0  0  0  0  0  0  0  0  0
    4.1665   51.7051   27.1170 C   0  0  0  0  0  0  0  0  0  0  0  0
    2.6215   51.6933   28.9504 C   0  0  0  0  0  0  0  0  0  0  0  0
    2.6736   49.9029   30.6206 N   0  0  0  0  0  0  0  0  0  0  0  0
    4.4960   52.5023   26.0378 O   0  0  0  0  0  0  0  0  0  0  0  0
    3.1522   52.2753   27.8071 C   0  0  0  0  0  0  0  0  0  0  0  0
    3.5441   49.6435   31.6540 O   0  0  0  0  0  0  0  0  0  0  0  0
    1.4466   49.8971   30.8498 O   0  0  0  0  0  0  0  0  0  0  0  0
    3.6317   53.6467   26.0530 C   0  0  0  0  0  0  0  0  0  0  0  0
    2.7898   53.4619   27.1993 O   0  0  0  0  0  0  0  0  0  0  0  0
    8.8122   40.1850   34.2131 O   0  0  0  0  0  0  0  0  0  0  0  0
   11.2407   40.7939   33.3694 O   0  0  0  0  0  0  0  0  0  0  0  0
   10.9151   40.6905   31.9974 C   0  0  0  0  0  0  0  0  0  0  0  0
   11.5252   39.3886   31.4375 C   0  0  0  0  0  0  0  0  0  0  0  0
   12.7500   39.0874   32.0799 O   0  0  0  0  0  0  0  0  0  0  0  0
   10.6092   38.1926   31.6470 C   0  0  0  0  0  0  0  0  0  0  0  0
   12.9332   37.6793   32.0294 C   0  0  0  0  0  0  0  0  0  0  0  0
    9.6122   38.0895   30.6543 O   0  0  0  0  0  0  0  0  0  0  0  0
   11.5743   37.0145   31.7024 C   0  0  0  0  0  0  0  0  0  0  0  0
   13.4844   37.2108   33.3241 N   0  0  0  0  0  0  0  0  0  0  0  0
   11.6297   36.3239   30.4740 O   0  0  0  0  0  0  0  0  0  0  0  0
   14.4802   36.3313   33.5726 C   0  0  0  0  0  0  0  0  0  0  0  0
   13.1139   37.6267   34.5692 C   0  0  0  0  0  0  0  0  0  0  0  0
   15.2075   35.6149   32.6739 N   0  0  0  0  0  0  0  0  0  0  0  0
   14.6761   36.2303   34.9181 C   0  0  0  0  0  0  0  0  0  0  0  0
   13.8220   37.0447   35.5785 N   0  0  0  0  0  0  0  0  0  0  0  0
   16.1643   34.7600   33.1547 C   0  0  0  0  0  0  0  0  0  0  0  0
   15.6529   35.3505   35.4130 C   0  0  0  0  0  0  0  0  0  0  0  0
   16.3798   34.6315   34.5042 N   0  0  0  0  0  0  0  0  0  0  0  0
   15.9003   35.1932   36.8090 N   0  0  0  0  0  0  0  0  0  0  0  0
    9.0121   45.4317   33.6711 H   0  0  0  0  0  0  0  0  0  0  0  0
   10.7260   46.9688   33.1214 H   0  0  0  0  0  0  0  0  0  0  0  0
   11.8908   45.7659   32.9474 H   0  0  0  0  0  0  0  0  0  0  0  0
   10.7236   44.8821   31.1557 H   0  0  0  0  0  0  0  0  0  0  0  0
    9.3425   43.8329   31.4758 H   0  0  0  0  0  0  0  0  0  0  0  0
    7.0104   44.7170   31.5839 H   0  0  0  0  0  0  0  0  0  0  0  0
   10.3460   47.1865   30.4113 H   0  0  0  0  0  0  0  0  0  0  0  0
    5.4668   46.2857   30.5249 H   0  0  0  0  0  0  0  0  0  0  0  0
    8.7944   48.7707   29.3450 H   0  0  0  0  0  0  0  0  0  0  0  0
    4.3018   48.1092   29.9462 H   0  0  0  0  0  0  0  0  0  0  0  0
    3.3831   47.4331   27.7053 H   0  0  0  0  0  0  0  0  0  0  0  0
    4.7935   46.4449   28.2188 H   0  0  0  0  0  0  0  0  0  0  0  0
    5.0129   47.7212   26.9751 H   0  0  0  0  0  0  0  0  0  0  0  0
    5.5369   50.0689   26.9186 H   0  0  0  0  0  0  0  0  0  0  0  0
    1.8259   52.1871   29.4935 H   0  0  0  0  0  0  0  0  0  0  0  0
    4.2279   54.5769   26.1615 H   0  0  0  0  0  0  0  0  0  0  0  0
    3.0184   53.6771   25.1281 H   0  0  0  0  0  0  0  0  0  0  0  0
   11.3802   41.5529   31.4734 H   0  0  0  0  0  0  0  0  0  0  0  0
    9.8243   40.7216   31.7643 H   0  0  0  0  0  0  0  0  0  0  0  0
   11.7266   39.5311   30.3513 H   0  0  0  0  0  0  0  0  0  0  0  0
   10.1110   38.2747   32.6387 H   0  0  0  0  0  0  0  0  0  0  0  0
   13.6652   37.4519   31.2226 H   0  0  0  0  0  0  0  0  0  0  0  0
   10.0511   38.1143   29.7645 H   0  0  0  0  0  0  0  0  0  0  0  0
   11.2762   36.3141   32.5189 H   0  0  0  0  0  0  0  0  0  0  0  0
   10.8593   35.6978   30.4640 H   0  0  0  0  0  0  0  0  0  0  0  0
   12.3295   38.3519   34.7449 H   0  0  0  0  0  0  0  0  0  0  0  0
   16.7564   34.1780   32.4620 H   0  0  0  0  0  0  0  0  0  0  0  0
   16.6349   34.5300   37.1415 H   0  0  0  0  0  0  0  0  0  0  0  0
   15.3534   35.7359   37.5138 H   0  0  0  0  0  0  0  0  0  0  0  0
  1  2  2  0
  1  3  1  0
  3  4  1  0
  4  5  1  0
  6  1  1  0
  7  6  1  0
  6  8  1  0
  8  9  1  0
  9 10  2  0
 11  9  1  0
 10 12  1  0
 13 11  2  0
 12 14  2  0
 14 13  1  0
 14 15  1  0
 15 16  1  0
 16 17  1  0
 16 18  1  0
 18 19  2  0
 20 18  1  0
 19 21  1  0
 22 20  2  0
 20 23  1  0
 21 24  1  0
 21 25  2  0
 25 22  1  0
 23 26  1  0
 23 27  2  0
 24 28  1  0
 25 29  1  0
 28 29  1  0
  4 30  2  0
  4 31  1  0
 32 31  1  0
 32 33  1  0
 33 34  1  0
 33 35  1  0
 34 36  1  0
 35 37  1  0
 35 38  1  0
 38 36  1  0
 36 39  1  0
 38 40  1  0
 41 39  1  0
 42 39  1  0
 43 41  2  0
 41 44  1  0
 45 42  2  0
 46 43  1  0
 44 47  2  0
 44 45  1  0
 48 46  2  0
 48 47  1  0
 47 49  1  0
  6 50  1  1
  7 51  1  0
  7 52  1  0
  8 53  1  0
  8 54  1  0
 10 55  1  0
 11 56  1  0
 12 57  1  0
 13 58  1  0
 16 59  1  1
 17 60  1  0
 17 61  1  0
 17 62  1  0
 19 63  1  0
 22 64  1  0
 28 65  1  0
 28 66  1  0
 32 67  1  0
 32 68  1  0
 33 69  1  0
 35 70  1  0
 36 71  1  0
 37 72  1  0
 38 73  1  0
 40 74  1  0
 42 75  1  0
 46 76  1  0
 49 77  1  0
 49 78  1  0
M  CHG  3   5  -1  23   1  26  -1
M  END
>  <EmbedRMS>  (170) 
0.0818013189293

$$$$

     RDKit          3D

 78 83  0  0  0  0  0  0  0  0999 V2000
   10.2839   43.7626   33.8275 C   0  0  0  0  0  0  0  0  0  0  0  0
   11.4103   43.5863   34.3767 O   0  0  0  0  0  0  0  0  0  0  0  0
    9.3633   42.7234   33.7352 O   0  0  0  0  0  0  0  0  0  0  0  0
    9.8898   41.2247   34.2940 P   0  0  0  0  0  0  0  0  0  0  0  0
   10.3724   41.4544   35.8836 O   0  0  0  0  0  0  0  0  0  0  0  0
    9.9549   45.0699   33.2063 C   0  0  1  0  0  0  0  0  0  0  0  0
   11.0198   46.0481   33.4571 N   0  0  0  0  0  0  0  0  0  0  0  0
    9.7508   44.8511   31.6922 C   0  0  0  0  0  0  0  0  0  0  0  0
    8.7946   45.8417   31.0867 C   0  0  0  0  0  0  0  0  0  0  0  0
    7.4080   45.6006   31.1003 C   0  0  0  0  0  0  0  0  0  0  0  0
    9.2826   46.9891   30.4448 C   0  0  0  0  0  0  0  0  0  0  0  0
    6.5255   46.4999   30.4858 C   0  0  0  0  0  0  0  0  0  0  0  0
    8.4008   47.8880   29.8339 C   0  0  0  0  0  0  0  0  0  0  0  0
    7.0190   47.6555   29.8447 C   0  0  0  0  0  0  0  0  0  0  0  0
    6.1872   48.5993   29.2188 O   0  0  0  0  0  0  0  0  0  0  0  0
    4.7669   48.5069   29.0718 C   0  0  2  0  0  0  0  0  0  0  0  0
    4.4416   47.5112   27.9473 C   0  0  0  0  0  0  0  0  0  0  0  0
    4.2136   49.9160   28.8626 C   0  0  0  0  0  0  0  0  0  0  0  0
    3.4508   50.2505   27.7084 C   0  0  0  0  0  0  0  0  0  0  0  0
    4.4953   50.9502   29.8242 C   0  0  0  0  0  0  0  0  0  0  0  0
    3.0239   51.5616   27.5459 C   0  0  0  0  0  0  0  0  0  0  0  0
    4.0451   52.2693   29.5918 C   0  0  0  0  0  0  0  0  0  0  0  0
    5.2504   50.6922   31.0210 N   0  0  0  0  0  0  0  0  0  0  0  0
    2.2838   52.1000   26.5105 O   0  0  0  0  0  0  0  0  0  0  0  0
    3.3107   52.5280   28.4451 C   0  0  0  0  0  0  0  0  0  0  0  0
    6.0959   51.6580   31.5162 O   0  0  0  0  0  0  0  0  0  0  0  0
    5.0009   49.6946   31.7276 O   0  0  0  0  0  0  0  0  0  0  0  0
    2.0946   53.4955   26.7805 C   0  0  0  0  0  0  0  0  0  0  0  0
    2.7667   53.7269   28.0258 O   0  0  0  0  0  0  0  0  0  0  0  0
    8.8118   40.1831   34.2121 O   0  0  0  0  0  0  0  0  0  0  0  0
   11.2413   40.7934   33.3696 O   0  0  0  0  0  0  0  0  0  0  0  0
   10.9179   40.6902   31.9971 C   0  0  0  0  0  0  0  0  0  0  0  0
   11.5181   39.3813   31.4408 C   0  0  0  0  0  0  0  0  0  0  0  0
   12.7498   39.0870   32.0745 O   0  0  0  0  0  0  0  0  0  0  0  0
   10.6045   38.1891   31.6655 C   0  0  0  0  0  0  0  0  0  0  0  0
   12.9344   37.6801   32.0290 C   0  0  0  0  0  0  0  0  0  0  0  0
    9.6418   38.0758   30.6440 O   0  0  0  0  0  0  0  0  0  0  0  0
   11.5741   37.0169   31.7045 C   0  0  0  0  0  0  0  0  0  0  0  0
   13.4851   37.2125   33.3241 N   0  0  0  0  0  0  0  0  0  0  0  0
   11.6079   36.3407   30.4679 O   0  0  0  0  0  0  0  0  0  0  0  0
   14.4801   36.3321   33.5727 C   0  0  0  0  0  0  0  0  0  0  0  0
   13.1140   37.6277   34.5692 C   0  0  0  0  0  0  0  0  0  0  0  0
   15.2073   35.6155   32.6739 N   0  0  0  0  0  0  0  0  0  0  0  0
   14.6758   36.2306   34.9182 C   0  0  0  0  0  0  0  0  0  0  0  0
   13.8217   37.0451   35.5785 N   0  0  0  0  0  0  0  0  0  0  0  0
   16.1639   34.7602   33.1546 C   0  0  0  0  0  0  0  0  0  0  0  0
   15.6526   35.3506   35.4130 C   0  0  0  0  0  0  0  0  0  0  0  0
   16.3794   34.6316   34.5041 N   0  0  0  0  0  0  0  0  0  0  0  0
   15.9000   35.1933   36.8089 N   0  0  0  0  0  0  0  0  0  0  0  0
    9.0098   45.4347   33.6668 H   0  0  0  0  0  0  0  0  0  0  0  0
   11.9349   45.6934   33.0930 H   0  0  0  0  0  0  0  0  0  0  0  0
   11.1131   46.1992   34.4885 H   0  0  0  0  0  0  0  0  0  0  0  0
    9.3521   43.8344   31.4757 H   0  0  0  0  0  0  0  0  0  0  0  0
   10.7312   44.8932   31.1676 H   0  0  0  0  0  0  0  0  0  0  0  0
    7.0132   44.7153   31.5836 H   0  0  0  0  0  0  0  0  0  0  0  0
   10.3466   47.1898   30.4157 H   0  0  0  0  0  0  0  0  0  0  0  0
    5.4687   46.2806   30.5204 H   0  0  0  0  0  0  0  0  0  0  0  0
    8.7939   48.7712   29.3464 H   0  0  0  0  0  0  0  0  0  0  0  0
    4.3045   48.1163   30.0011 H   0  0  0  0  0  0  0  0  0  0  0  0
    4.8729   47.8572   26.9838 H   0  0  0  0  0  0  0  0  0  0  0  0
    4.8749   46.5158   28.1748 H   0  0  0  0  0  0  0  0  0  0  0  0
    3.3427   47.3820   27.8493 H   0  0  0  0  0  0  0  0  0  0  0  0
    3.1947   49.5325   26.9437 H   0  0  0  0  0  0  0  0  0  0  0  0
    4.2484   53.0665   30.2952 H   0  0  0  0  0  0  0  0  0  0  0  0
    1.0128   53.7242   26.8806 H   0  0  0  0  0  0  0  0  0  0  0  0
    2.5546   54.1081   25.9771 H   0  0  0  0  0  0  0  0  0  0  0  0
   11.3949   41.5458   31.4729 H   0  0  0  0  0  0  0  0  0  0  0  0
    9.8290   40.7386   31.7614 H   0  0  0  0  0  0  0  0  0  0  0  0
   11.6994   39.5069   30.3483 H   0  0  0  0  0  0  0  0  0  0  0  0
   10.1090   38.2634   32.6632 H   0  0  0  0  0  0  0  0  0  0  0  0
   13.6662   37.4514   31.2224 H   0  0  0  0  0  0  0  0  0  0  0  0
    8.9009   38.6924   30.8793 H   0  0  0  0  0  0  0  0  0  0  0  0
   11.2650   36.3082   32.5086 H   0  0  0  0  0  0  0  0  0  0  0  0
   12.1372   35.5140   30.6162 H   0  0  0  0  0  0  0  0  0  0  0  0
   12.3297   38.3530   34.7449 H   0  0  0  0  0  0  0  0  0  0  0  0
   16.7558   34.1781   32.4619 H   0  0  0  0  0  0  0  0  0  0  0  0
   15.3533   35.7360   37.5138 H   0  0  0  0  0  0  0  0  0  0  0  0
   16.6346   34.5300   37.1414 H   0  0  0  0  0  0  0  0  0  0  0  0
  1  2  2  0
  1  3  1  0
  3  4  1  0
  4  5  1  0
  6  1  1  0
  7  6  1  0
  6  8  1  0
  8  9  1  0
  9 10  2  0
 11  9  1  0
 10 12  1  0
 13 11  2  0
 12 14  2  0
 14 13  1  0
 14 15  1  0
 15 16  1  0
 16 17  1  0
 16 18  1  0
 18 19  2  0
 20 18  1  0
 19 21  1  0
 22 20  2  0
 20 23  1  0
 21 24  1  0
 21 25  2  0
 25 22  1  0
 23 26  1  0
 23 27  2  0
 24 28  1  0
 25 29  1  0
 28 29  1  0
  4 30  2  0
  4 31  1  0
 32 31  1  0
 32 33  1  0
 33 34  1  0
 33 35  1  0
 34 36  1  0
 35 37  1  0
 35 38  1  0
 38 36  1  0
 36 39  1  0
 38 40  1  0
 41 39  1  0
 42 39  1  0
 43 41  2  0
 41 44  1  0
 45 42  2  0
 46 43  1  0
 44 47  2  0
 44 45  1  0
 48 46  2  0
 48 47  1  0
 47 49  1  0
  6 50  1  1
  7 51  1  0
  7 52  1  0
  8 53  1  0
  8 54  1  0
 10 55  1  0
 11 56  1  0
 12 57  1  0
 13 58  1  0
 16 59  1  1
 17 60  1  0
 17 61  1  0
 17 62  1  0
 19 63  1  0
 22 64  1  0
 28 65  1  0
 28 66  1  0
 32 67  1  0
 32 68  1  0
 33 69  1  0
 35 70  1  0
 36 71  1  0
 37 72  1  0
 38 73  1  0
 40 74  1  0
 42 75  1  0
 46 76  1  0
 49 77  1  0
 49 78  1  0
M  CHG  3   5  -1  23   1  26  -1
M  END
>  <EmbedRMS>  (171) 
0.0837064278663

$$$$

     RDKit          3D

 78 83  0  0  0  0  0  0  0  0999 V2000
   10.2839   43.7626   33.8276 C   0  0  0  0  0  0  0  0  0  0  0  0
   11.4103   43.5863   34.3767 O   0  0  0  0  0  0  0  0  0  0  0  0
    9.3633   42.7234   33.7352 O   0  0  0  0  0  0  0  0  0  0  0  0
    9.8898   41.2247   34.2940 P   0  0  0  0  0  0  0  0  0  0  0  0
   10.3724   41.4544   35.8836 O   0  0  0  0  0  0  0  0  0  0  0  0
    9.9548   45.0700   33.2065 C   0  0  1  0  0  0  0  0  0  0  0  0
   11.0197   46.0482   33.4572 N   0  0  0  0  0  0  0  0  0  0  0  0
    9.7506   44.8512   31.6924 C   0  0  0  0  0  0  0  0  0  0  0  0
    8.7944   45.8420   31.0871 C   0  0  0  0  0  0  0  0  0  0  0  0
    7.4077   45.6003   31.1002 C   0  0  0  0  0  0  0  0  0  0  0  0
    9.2827   46.9889   30.4439 C   0  0  0  0  0  0  0  0  0  0  0  0
    6.5259   46.4992   30.4846 C   0  0  0  0  0  0  0  0  0  0  0  0
    8.4010   47.8877   29.8323 C   0  0  0  0  0  0  0  0  0  0  0  0
    7.0193   47.6565   29.8477 C   0  0  0  0  0  0  0  0  0  0  0  0
    6.1813   48.5954   29.2239 O   0  0  0  0  0  0  0  0  0  0  0  0
    4.7514   48.5631   29.2350 C   0  0  2  0  0  0  0  0  0  0  0  0
    4.2289   49.6232   28.2670 C   0  0  0  0  0  0  0  0  0  0  0  0
    4.2232   48.8307   30.6342 C   0  0  0  0  0  0  0  0  0  0  0  0
    4.8104   49.8745   31.3908 C   0  0  0  0  0  0  0  0  0  0  0  0
    3.1954   48.0264   31.2283 C   0  0  0  0  0  0  0  0  0  0  0  0
    4.3927   50.0595   32.7020 C   0  0  0  0  0  0  0  0  0  0  0  0
    2.8222   48.2519   32.5733 C   0  0  0  0  0  0  0  0  0  0  0  0
    2.5170   47.0023   30.4844 N   0  0  0  0  0  0  0  0  0  0  0  0
    4.8309   50.9953   33.6191 O   0  0  0  0  0  0  0  0  0  0  0  0
    3.4446   49.2793   33.2699 C   0  0  0  0  0  0  0  0  0  0  0  0
    2.0154   47.2758   29.2330 O   0  0  0  0  0  0  0  0  0  0  0  0
    2.1833   45.9395   31.0479 O   0  0  0  0  0  0  0  0  0  0  0  0
    4.1092   50.7884   34.8411 C   0  0  0  0  0  0  0  0  0  0  0  0
    3.2345   49.6836   34.5742 O   0  0  0  0  0  0  0  0  0  0  0  0
    8.8118   40.1831   34.2121 O   0  0  0  0  0  0  0  0  0  0  0  0
   11.2413   40.7934   33.3696 O   0  0  0  0  0  0  0  0  0  0  0  0
   10.9178   40.6902   31.9971 C   0  0  0  0  0  0  0  0  0  0  0  0
   11.5181   39.3813   31.4408 C   0  0  0  0  0  0  0  0  0  0  0  0
   12.7497   39.0870   32.0745 O   0  0  0  0  0  0  0  0  0  0  0  0
   10.6045   38.1891   31.6655 C   0  0  0  0  0  0  0  0  0  0  0  0
   12.9344   37.6801   32.0290 C   0  0  0  0  0  0  0  0  0  0  0  0
    9.6418   38.0757   30.6440 O   0  0  0  0  0  0  0  0  0  0  0  0
   11.5741   37.0169   31.7045 C   0  0  0  0  0  0  0  0  0  0  0  0
   13.4851   37.2125   33.3241 N   0  0  0  0  0  0  0  0  0  0  0  0
   11.6079   36.3406   30.4679 O   0  0  0  0  0  0  0  0  0  0  0  0
   14.4801   36.3321   33.5727 C   0  0  0  0  0  0  0  0  0  0  0  0
   13.1140   37.6277   34.5692 C   0  0  0  0  0  0  0  0  0  0  0  0
   15.2073   35.6155   32.6739 N   0  0  0  0  0  0  0  0  0  0  0  0
   14.6758   36.2306   34.9182 C   0  0  0  0  0  0  0  0  0  0  0  0
   13.8217   37.0450   35.5784 N   0  0  0  0  0  0  0  0  0  0  0  0
   16.1639   34.7602   33.1546 C   0  0  0  0  0  0  0  0  0  0  0  0
   15.6526   35.3506   35.4130 C   0  0  0  0  0  0  0  0  0  0  0  0
   16.3794   34.6316   34.5041 N   0  0  0  0  0  0  0  0  0  0  0  0
   15.9001   35.1933   36.8089 N   0  0  0  0  0  0  0  0  0  0  0  0
    9.0097   45.4348   33.6670 H   0  0  0  0  0  0  0  0  0  0  0  0
   11.9348   45.6934   33.0931 H   0  0  0  0  0  0  0  0  0  0  0  0
   11.1130   46.1994   34.4885 H   0  0  0  0  0  0  0  0  0  0  0  0
    9.3519   43.8346   31.4758 H   0  0  0  0  0  0  0  0  0  0  0  0
   10.7309   44.8933   31.1677 H   0  0  0  0  0  0  0  0  0  0  0  0
    7.0127   44.7141   31.5816 H   0  0  0  0  0  0  0  0  0  0  0  0
   10.3467   47.1890   30.4140 H   0  0  0  0  0  0  0  0  0  0  0  0
    5.4684   46.2798   30.5091 H   0  0  0  0  0  0  0  0  0  0  0  0
    8.7937   48.7705   29.3438 H   0  0  0  0  0  0  0  0  0  0  0  0
    4.4260   47.5735   28.8539 H   0  0  0  0  0  0  0  0  0  0  0  0
    3.1182   49.6254   28.2577 H   0  0  0  0  0  0  0  0  0  0  0  0
    4.5893   49.4025   27.2398 H   0  0  0  0  0  0  0  0  0  0  0  0
    4.5900   50.6325   28.5589 H   0  0  0  0  0  0  0  0  0  0  0  0
    5.5856   50.5067   30.9766 H   0  0  0  0  0  0  0  0  0  0  0  0
    2.0533   47.6591   33.0520 H   0  0  0  0  0  0  0  0  0  0  0  0
    3.5176   51.6927   35.0955 H   0  0  0  0  0  0  0  0  0  0  0  0
    4.8105   50.5320   35.6626 H   0  0  0  0  0  0  0  0  0  0  0  0
    9.8290   40.7386   31.7614 H   0  0  0  0  0  0  0  0  0  0  0  0
   11.3949   41.5458   31.4729 H   0  0  0  0  0  0  0  0  0  0  0  0
   11.6994   39.5069   30.3483 H   0  0  0  0  0  0  0  0  0  0  0  0
   10.1090   38.2633   32.6632 H   0  0  0  0  0  0  0  0  0  0  0  0
   13.6662   37.4514   31.2224 H   0  0  0  0  0  0  0  0  0  0  0  0
    8.9009   38.6924   30.8793 H   0  0  0  0  0  0  0  0  0  0  0  0
   11.2650   36.3082   32.5086 H   0  0  0  0  0  0  0  0  0  0  0  0
   12.1372   35.5140   30.6162 H   0  0  0  0  0  0  0  0  0  0  0  0
   12.3297   38.3530   34.7449 H   0  0  0  0  0  0  0  0  0  0  0  0
   16.7558   34.1781   32.4619 H   0  0  0  0  0  0  0  0  0  0  0  0
   15.3533   35.7360   37.5138 H   0  0  0  0  0  0  0  0  0  0  0  0
   16.6346   34.5300   37.1414 H   0  0  0  0  0  0  0  0  0  0  0  0
  1  2  2  0
  1  3  1  0
  3  4  1  0
  4  5  1  0
  6  1  1  0
  7  6  1  0
  6  8  1  0
  8  9  1  0
  9 10  2  0
 11  9  1  0
 10 12  1  0
 13 11  2  0
 12 14  2  0
 14 13  1  0
 14 15  1  0
 15 16  1  0
 16 17  1  0
 16 18  1  0
 18 19  2  0
 20 18  1  0
 19 21  1  0
 22 20  2  0
 20 23  1  0
 21 24  1  0
 21 25  2  0
 25 22  1  0
 23 26  1  0
 23 27  2  0
 24 28  1  0
 25 29  1  0
 28 29  1  0
  4 30  2  0
  4 31  1  0
 32 31  1  0
 32 33  1  0
 33 34  1  0
 33 35  1  0
 34 36  1  0
 35 37  1  0
 35 38  1  0
 38 36  1  0
 36 39  1  0
 38 40  1  0
 41 39  1  0
 42 39  1  0
 43 41  2  0
 41 44  1  0
 45 42  2  0
 46 43  1  0
 44 47  2  0
 44 45  1  0
 48 46  2  0
 48 47  1  0
 47 49  1  0
  6 50  1  1
  7 51  1  0
  7 52  1  0
  8 53  1  0
  8 54  1  0
 10 55  1  0
 11 56  1  0
 12 57  1  0
 13 58  1  0
 16 59  1  6
 17 60  1  0
 17 61  1  0
 17 62  1  0
 19 63  1  0
 22 64  1  0
 28 65  1  0
 28 66  1  0
 32 67  1  0
 32 68  1  0
 33 69  1  0
 35 70  1  0
 36 71  1  0
 37 72  1  0
 38 73  1  0
 40 74  1  0
 42 75  1  0
 46 76  1  0
 49 77  1  0
 49 78  1  0
M  CHG  3   5  -1  23   1  26  -1
M  END
>  <EmbedRMS>  (172) 
0.0837077242287

$$$$

     RDKit          3D

 78 83  0  0  0  0  0  0  0  0999 V2000
   10.2834   43.7661   33.8257 C   0  0  0  0  0  0  0  0  0  0  0  0
   11.4102   43.5930   34.3753 O   0  0  0  0  0  0  0  0  0  0  0  0
    9.3637   42.7254   33.7349 O   0  0  0  0  0  0  0  0  0  0  0  0
    9.8907   41.2265   34.2934 P   0  0  0  0  0  0  0  0  0  0  0  0
   10.3743   41.4556   35.8828 O   0  0  0  0  0  0  0  0  0  0  0  0
    9.9546   45.0695   33.2037 C   0  0  1  0  0  0  0  0  0  0  0  0
   11.0273   46.0322   33.4757 N   0  0  0  0  0  0  0  0  0  0  0  0
    9.7465   44.8480   31.6879 C   0  0  0  0  0  0  0  0  0  0  0  0
    8.7922   45.8409   31.0849 C   0  0  0  0  0  0  0  0  0  0  0  0
    7.4058   45.6013   31.0987 C   0  0  0  0  0  0  0  0  0  0  0  0
    9.2821   46.9873   30.4421 C   0  0  0  0  0  0  0  0  0  0  0  0
    6.5273   46.5026   30.4828 C   0  0  0  0  0  0  0  0  0  0  0  0
    8.4035   47.8895   29.8305 C   0  0  0  0  0  0  0  0  0  0  0  0
    7.0132   47.6547   29.8490 C   0  0  0  0  0  0  0  0  0  0  0  0
    6.0820   48.5193   29.2501 O   0  0  0  0  0  0  0  0  0  0  0  0
    6.3600   49.8082   28.7001 C   0  0  2  0  0  0  0  0  0  0  0  0
    6.6642   50.8305   29.8041 C   0  0  0  0  0  0  0  0  0  0  0  0
    5.1912   50.2594   27.8373 C   0  0  0  0  0  0  0  0  0  0  0  0
    5.4407   50.5068   26.4636 C   0  0  0  0  0  0  0  0  0  0  0  0
    3.8679   50.4872   28.3557 C   0  0  0  0  0  0  0  0  0  0  0  0
    4.4034   50.9790   25.6706 C   0  0  0  0  0  0  0  0  0  0  0  0
    2.8582   50.9843   27.5015 C   0  0  0  0  0  0  0  0  0  0  0  0
    3.5302   50.2451   29.7291 N   0  0  0  0  0  0  0  0  0  0  0  0
    4.4244   51.2889   24.3243 O   0  0  0  0  0  0  0  0  0  0  0  0
    3.1681   51.2107   26.1682 C   0  0  0  0  0  0  0  0  0  0  0  0
    2.7357   51.1458   30.4001 O   0  0  0  0  0  0  0  0  0  0  0  0
    3.7254   49.1229   30.2370 O   0  0  0  0  0  0  0  0  0  0  0  0
    3.1156   51.7438   23.9546 C   0  0  0  0  0  0  0  0  0  0  0  0
    2.3446   51.6782   25.1620 O   0  0  0  0  0  0  0  0  0  0  0  0
    8.8123   40.1850   34.2127 O   0  0  0  0  0  0  0  0  0  0  0  0
   11.2407   40.7945   33.3670 O   0  0  0  0  0  0  0  0  0  0  0  0
   10.9134   40.6866   31.9954 C   0  0  0  0  0  0  0  0  0  0  0  0
   11.5166   39.3787   31.4404 C   0  0  0  0  0  0  0  0  0  0  0  0
   12.7486   39.0849   32.0735 O   0  0  0  0  0  0  0  0  0  0  0  0
   10.6039   38.1884   31.6670 C   0  0  0  0  0  0  0  0  0  0  0  0
   12.9329   37.6776   32.0284 C   0  0  0  0  0  0  0  0  0  0  0  0
    9.6374   38.0938   30.6485 O   0  0  0  0  0  0  0  0  0  0  0  0
   11.5737   37.0141   31.7055 C   0  0  0  0  0  0  0  0  0  0  0  0
   13.4853   37.2120   33.3238 N   0  0  0  0  0  0  0  0  0  0  0  0
   11.6210   36.3378   30.4684 O   0  0  0  0  0  0  0  0  0  0  0  0
   14.4805   36.3319   33.5726 C   0  0  0  0  0  0  0  0  0  0  0  0
   13.1141   37.6275   34.5689 C   0  0  0  0  0  0  0  0  0  0  0  0
   15.2076   35.6152   32.6740 N   0  0  0  0  0  0  0  0  0  0  0  0
   14.6761   36.2307   34.9181 C   0  0  0  0  0  0  0  0  0  0  0  0
   13.8218   37.0451   35.5782 N   0  0  0  0  0  0  0  0  0  0  0  0
   16.1642   34.7600   33.1548 C   0  0  0  0  0  0  0  0  0  0  0  0
   15.6527   35.3506   35.4131 C   0  0  0  0  0  0  0  0  0  0  0  0
   16.3795   34.6315   34.5043 N   0  0  0  0  0  0  0  0  0  0  0  0
   15.9001   35.1933   36.8090 N   0  0  0  0  0  0  0  0  0  0  0  0
    9.0121   45.4317   33.6717 H   0  0  0  0  0  0  0  0  0  0  0  0
   10.7259   46.9687   33.1212 H   0  0  0  0  0  0  0  0  0  0  0  0
   11.8906   45.7658   32.9471 H   0  0  0  0  0  0  0  0  0  0  0  0
   10.7228   44.8814   31.1558 H   0  0  0  0  0  0  0  0  0  0  0  0
    9.3412   43.8329   31.4764 H   0  0  0  0  0  0  0  0  0  0  0  0
    7.0084   44.7163   31.5802 H   0  0  0  0  0  0  0  0  0  0  0  0
   10.3470   47.1825   30.4091 H   0  0  0  0  0  0  0  0  0  0  0  0
    5.4628   46.3057   30.5004 H   0  0  0  0  0  0  0  0  0  0  0  0
    8.8228   48.7554   29.3402 H   0  0  0  0  0  0  0  0  0  0  0  0
    7.2637   49.7315   28.0575 H   0  0  0  0  0  0  0  0  0  0  0  0
    5.8712   50.8408   30.5779 H   0  0  0  0  0  0  0  0  0  0  0  0
    6.7586   51.8478   29.3677 H   0  0  0  0  0  0  0  0  0  0  0  0
    7.6217   50.5844   30.3063 H   0  0  0  0  0  0  0  0  0  0  0  0
    6.4178   50.3501   26.0244 H   0  0  0  0  0  0  0  0  0  0  0  0
    1.8560   51.1719   27.8653 H   0  0  0  0  0  0  0  0  0  0  0  0
    3.1624   52.7900   23.5862 H   0  0  0  0  0  0  0  0  0  0  0  0
    2.6793   51.0737   23.1845 H   0  0  0  0  0  0  0  0  0  0  0  0
   11.3828   41.5438   31.4669 H   0  0  0  0  0  0  0  0  0  0  0  0
    9.8225   40.7225   31.7632 H   0  0  0  0  0  0  0  0  0  0  0  0
   11.6979   39.5036   30.3478 H   0  0  0  0  0  0  0  0  0  0  0  0
   10.1084   38.2786   32.6627 H   0  0  0  0  0  0  0  0  0  0  0  0
   13.6638   37.4472   31.2213 H   0  0  0  0  0  0  0  0  0  0  0  0
    8.9763   37.4191   30.9532 H   0  0  0  0  0  0  0  0  0  0  0  0
   11.2822   36.3054   32.5172 H   0  0  0  0  0  0  0  0  0  0  0  0
   10.8657   35.6935   30.4653 H   0  0  0  0  0  0  0  0  0  0  0  0
   12.3293   38.3523   34.7444 H   0  0  0  0  0  0  0  0  0  0  0  0
   16.7561   34.1777   32.4621 H   0  0  0  0  0  0  0  0  0  0  0  0
   15.3533   35.7361   37.5138 H   0  0  0  0  0  0  0  0  0  0  0  0
   16.6346   34.5300   37.1416 H   0  0  0  0  0  0  0  0  0  0  0  0
  1  2  2  0
  1  3  1  0
  3  4  1  0
  4  5  1  0
  6  1  1  0
  7  6  1  0
  6  8  1  0
  8  9  1  0
  9 10  2  0
 11  9  1  0
 10 12  1  0
 13 11  2  0
 12 14  2  0
 14 13  1  0
 14 15  1  0
 15 16  1  0
 16 17  1  0
 16 18  1  0
 18 19  2  0
 20 18  1  0
 19 21  1  0
 22 20  2  0
 20 23  1  0
 21 24  1  0
 21 25  2  0
 25 22  1  0
 23 26  1  0
 23 27  2  0
 24 28  1  0
 25 29  1  0
 28 29  1  0
  4 30  2  0
  4 31  1  0
 32 31  1  0
 32 33  1  0
 33 34  1  0
 33 35  1  0
 34 36  1  0
 35 37  1  0
 35 38  1  0
 38 36  1  0
 36 39  1  0
 38 40  1  0
 41 39  1  0
 42 39  1  0
 43 41  2  0
 41 44  1  0
 45 42  2  0
 46 43  1  0
 44 47  2  0
 44 45  1  0
 48 46  2  0
 48 47  1  0
 47 49  1  0
  6 50  1  1
  7 51  1  0
  7 52  1  0
  8 53  1  0
  8 54  1  0
 10 55  1  0
 11 56  1  0
 12 57  1  0
 13 58  1  0
 16 59  1  6
 17 60  1  0
 17 61  1  0
 17 62  1  0
 19 63  1  0
 22 64  1  0
 28 65  1  0
 28 66  1  0
 32 67  1  0
 32 68  1  0
 33 69  1  0
 35 70  1  0
 36 71  1  0
 37 72  1  0
 38 73  1  0
 40 74  1  0
 42 75  1  0
 46 76  1  0
 49 77  1  0
 49 78  1  0
M  CHG  3   5  -1  23   1  26  -1
M  END
>  <EmbedRMS>  (173) 
0.082545063181

$$$$

     RDKit          3D

 78 83  0  0  0  0  0  0  0  0999 V2000
   10.2806   43.7663   33.8250 C   0  0  0  0  0  0  0  0  0  0  0  0
   11.4112   43.5918   34.3668 O   0  0  0  0  0  0  0  0  0  0  0  0
    9.3622   42.7247   33.7342 O   0  0  0  0  0  0  0  0  0  0  0  0
    9.8904   41.2264   34.2936 P   0  0  0  0  0  0  0  0  0  0  0  0
   10.3731   41.4564   35.8832 O   0  0  0  0  0  0  0  0  0  0  0  0
    9.9461   45.0736   33.2115 C   0  0  1  0  0  0  0  0  0  0  0  0
   11.0268   46.0291   33.4711 N   0  0  0  0  0  0  0  0  0  0  0  0
    9.7540   44.8545   31.6952 C   0  0  0  0  0  0  0  0  0  0  0  0
    8.7957   45.8420   31.0861 C   0  0  0  0  0  0  0  0  0  0  0  0
    7.4094   45.5998   31.1003 C   0  0  0  0  0  0  0  0  0  0  0  0
    9.2822   46.9875   30.4394 C   0  0  0  0  0  0  0  0  0  0  0  0
    6.5266   46.4981   30.4848 C   0  0  0  0  0  0  0  0  0  0  0  0
    8.3995   47.8855   29.8291 C   0  0  0  0  0  0  0  0  0  0  0  0
    7.0170   47.6573   29.8485 C   0  0  0  0  0  0  0  0  0  0  0  0
    6.1850   48.5975   29.2091 O   0  0  0  0  0  0  0  0  0  0  0  0
    4.7596   48.7352   29.3346 C   0  0  2  0  0  0  0  0  0  0  0  0
    4.3575   48.8439   30.8199 C   0  0  0  0  0  0  0  0  0  0  0  0
    3.9782   47.6657   28.5660 C   0  0  0  0  0  0  0  0  0  0  0  0
    4.6702   46.6791   27.8130 C   0  0  0  0  0  0  0  0  0  0  0  0
    2.5406   47.6401   28.5709 C   0  0  0  0  0  0  0  0  0  0  0  0
    3.9389   45.6768   27.1902 C   0  0  0  0  0  0  0  0  0  0  0  0
    1.8517   46.5837   27.9325 C   0  0  0  0  0  0  0  0  0  0  0  0
    1.7703   48.6895   29.1746 N   0  0  0  0  0  0  0  0  0  0  0  0
    4.4053   44.6162   26.4375 O   0  0  0  0  0  0  0  0  0  0  0  0
    2.5905   45.6249   27.2562 C   0  0  0  0  0  0  0  0  0  0  0  0
    2.0204   50.0013   28.8451 O   0  0  0  0  0  0  0  0  0  0  0  0
    0.7286   48.4144   29.8051 O   0  0  0  0  0  0  0  0  0  0  0  0
    3.2736   43.8480   26.0067 C   0  0  0  0  0  0  0  0  0  0  0  0
    2.1343   44.5282   26.5506 O   0  0  0  0  0  0  0  0  0  0  0  0
    8.8129   40.1841   34.2124 O   0  0  0  0  0  0  0  0  0  0  0  0
   11.2419   40.7943   33.3695 O   0  0  0  0  0  0  0  0  0  0  0  0
   10.9186   40.6911   31.9970 C   0  0  0  0  0  0  0  0  0  0  0  0
   11.5172   39.3814   31.4407 C   0  0  0  0  0  0  0  0  0  0  0  0
   12.7492   39.0856   32.0728 O   0  0  0  0  0  0  0  0  0  0  0  0
   10.6023   38.1908   31.6665 C   0  0  0  0  0  0  0  0  0  0  0  0
   12.9319   37.6781   32.0281 C   0  0  0  0  0  0  0  0  0  0  0  0
    9.6392   38.0798   30.6452 O   0  0  0  0  0  0  0  0  0  0  0  0
   11.5715   37.0165   31.7056 C   0  0  0  0  0  0  0  0  0  0  0  0
   13.4846   37.2121   33.3235 N   0  0  0  0  0  0  0  0  0  0  0  0
   11.6186   36.3383   30.4695 O   0  0  0  0  0  0  0  0  0  0  0  0
   14.4801   36.3321   33.5724 C   0  0  0  0  0  0  0  0  0  0  0  0
   13.1137   37.6275   34.5687 C   0  0  0  0  0  0  0  0  0  0  0  0
   15.2073   35.6153   32.6738 N   0  0  0  0  0  0  0  0  0  0  0  0
   14.6759   36.2308   34.9179 C   0  0  0  0  0  0  0  0  0  0  0  0
   13.8216   37.0452   35.5781 N   0  0  0  0  0  0  0  0  0  0  0  0
   16.1640   34.7602   33.1546 C   0  0  0  0  0  0  0  0  0  0  0  0
   15.6526   35.3508   35.4129 C   0  0  0  0  0  0  0  0  0  0  0  0
   16.3794   34.6317   34.5041 N   0  0  0  0  0  0  0  0  0  0  0  0
   15.8999   35.1934   36.8088 N   0  0  0  0  0  0  0  0  0  0  0  0
    8.9997   45.4380   33.6727 H   0  0  0  0  0  0  0  0  0  0  0  0
   11.0505   46.2275   34.4986 H   0  0  0  0  0  0  0  0  0  0  0  0
   10.7766   46.9369   33.0163 H   0  0  0  0  0  0  0  0  0  0  0  0
   10.7411   44.9084   31.1838 H   0  0  0  0  0  0  0  0  0  0  0  0
    9.3645   43.8358   31.4711 H   0  0  0  0  0  0  0  0  0  0  0  0
    7.0159   44.7103   31.5767 H   0  0  0  0  0  0  0  0  0  0  0  0
   10.3462   47.1868   30.4039 H   0  0  0  0  0  0  0  0  0  0  0  0
    5.4748   46.2596   30.4860 H   0  0  0  0  0  0  0  0  0  0  0  0
    8.7925   48.7657   29.3361 H   0  0  0  0  0  0  0  0  0  0  0  0
    4.5155   49.7084   28.8606 H   0  0  0  0  0  0  0  0  0  0  0  0
    5.1889   49.2806   31.4128 H   0  0  0  0  0  0  0  0  0  0  0  0
    3.4858   49.5169   30.9456 H   0  0  0  0  0  0  0  0  0  0  0  0
    4.0908   47.8571   31.2493 H   0  0  0  0  0  0  0  0  0  0  0  0
    5.7451   46.6756   27.7084 H   0  0  0  0  0  0  0  0  0  0  0  0
    0.7702   46.5351   27.9323 H   0  0  0  0  0  0  0  0  0  0  0  0
    3.3331   42.8160   26.4115 H   0  0  0  0  0  0  0  0  0  0  0  0
    3.2183   43.8342   24.8980 H   0  0  0  0  0  0  0  0  0  0  0  0
   11.3967   41.5460   31.4726 H   0  0  0  0  0  0  0  0  0  0  0  0
    9.8299   40.7409   31.7611 H   0  0  0  0  0  0  0  0  0  0  0  0
   11.6975   39.5066   30.3481 H   0  0  0  0  0  0  0  0  0  0  0  0
   10.1076   38.2647   32.6645 H   0  0  0  0  0  0  0  0  0  0  0  0
   13.6621   37.4467   31.2208 H   0  0  0  0  0  0  0  0  0  0  0  0
    8.8973   38.6943   30.8831 H   0  0  0  0  0  0  0  0  0  0  0  0
   11.2806   36.3073   32.5171 H   0  0  0  0  0  0  0  0  0  0  0  0
   10.8492   35.7110   30.4586 H   0  0  0  0  0  0  0  0  0  0  0  0
   12.3289   38.3523   34.7444 H   0  0  0  0  0  0  0  0  0  0  0  0
   16.7560   34.1781   32.4619 H   0  0  0  0  0  0  0  0  0  0  0  0
   15.3532   35.7362   37.5137 H   0  0  0  0  0  0  0  0  0  0  0  0
   16.6345   34.5301   37.1414 H   0  0  0  0  0  0  0  0  0  0  0  0
  1  2  2  0
  1  3  1  0
  3  4  1  0
  4  5  1  0
  6  1  1  0
  7  6  1  0
  6  8  1  0
  8  9  1  0
  9 10  2  0
 11  9  1  0
 10 12  1  0
 13 11  2  0
 12 14  2  0
 14 13  1  0
 14 15  1  0
 15 16  1  0
 16 17  1  0
 16 18  1  0
 18 19  2  0
 20 18  1  0
 19 21  1  0
 22 20  2  0
 20 23  1  0
 21 24  1  0
 21 25  2  0
 25 22  1  0
 23 26  1  0
 23 27  2  0
 24 28  1  0
 25 29  1  0
 28 29  1  0
  4 30  2  0
  4 31  1  0
 32 31  1  0
 32 33  1  0
 33 34  1  0
 33 35  1  0
 34 36  1  0
 35 37  1  0
 35 38  1  0
 38 36  1  0
 36 39  1  0
 38 40  1  0
 41 39  1  0
 42 39  1  0
 43 41  2  0
 41 44  1  0
 45 42  2  0
 46 43  1  0
 44 47  2  0
 44 45  1  0
 48 46  2  0
 48 47  1  0
 47 49  1  0
  6 50  1  1
  7 51  1  0
  7 52  1  0
  8 53  1  0
  8 54  1  0
 10 55  1  0
 11 56  1  0
 12 57  1  0
 13 58  1  0
 16 59  1  6
 17 60  1  0
 17 61  1  0
 17 62  1  0
 19 63  1  0
 22 64  1  0
 28 65  1  0
 28 66  1  0
 32 67  1  0
 32 68  1  0
 33 69  1  0
 35 70  1  0
 36 71  1  0
 37 72  1  0
 38 73  1  0
 40 74  1  0
 42 75  1  0
 46 76  1  0
 49 77  1  0
 49 78  1  0
M  CHG  3   5  -1  23   1  26  -1
M  END
>  <EmbedRMS>  (174) 
0.0827399795419

$$$$

     RDKit          3D

 78 83  0  0  0  0  0  0  0  0999 V2000
   10.2836   43.7661   33.8257 C   0  0  0  0  0  0  0  0  0  0  0  0
   11.4103   43.5930   34.3754 O   0  0  0  0  0  0  0  0  0  0  0  0
    9.3641   42.7252   33.7347 O   0  0  0  0  0  0  0  0  0  0  0  0
    9.8908   41.2264   34.2939 P   0  0  0  0  0  0  0  0  0  0  0  0
   10.3732   41.4558   35.8836 O   0  0  0  0  0  0  0  0  0  0  0  0
    9.9547   45.0694   33.2037 C   0  0  1  0  0  0  0  0  0  0  0  0
   11.0274   46.0321   33.4757 N   0  0  0  0  0  0  0  0  0  0  0  0
    9.7465   44.8481   31.6879 C   0  0  0  0  0  0  0  0  0  0  0  0
    8.7923   45.8410   31.0849 C   0  0  0  0  0  0  0  0  0  0  0  0
    7.4058   45.6013   31.0987 C   0  0  0  0  0  0  0  0  0  0  0  0
    9.2820   46.9873   30.4421 C   0  0  0  0  0  0  0  0  0  0  0  0
    6.5273   46.5025   30.4829 C   0  0  0  0  0  0  0  0  0  0  0  0
    8.4033   47.8895   29.8305 C   0  0  0  0  0  0  0  0  0  0  0  0
    7.0132   47.6546   29.8490 C   0  0  0  0  0  0  0  0  0  0  0  0
    6.0818   48.5191   29.2500 O   0  0  0  0  0  0  0  0  0  0  0  0
    6.3604   49.8063   28.6969 C   0  0  2  0  0  0  0  0  0  0  0  0
    6.6638   50.8298   29.7999 C   0  0  0  0  0  0  0  0  0  0  0  0
    5.1908   50.2551   27.8347 C   0  0  0  0  0  0  0  0  0  0  0  0
    5.4363   50.5027   26.4605 C   0  0  0  0  0  0  0  0  0  0  0  0
    3.8695   50.4779   28.3560 C   0  0  0  0  0  0  0  0  0  0  0  0
    4.3945   50.9688   25.6695 C   0  0  0  0  0  0  0  0  0  0  0  0
    2.8535   50.9672   27.5042 C   0  0  0  0  0  0  0  0  0  0  0  0
    3.5427   50.2318   29.7307 N   0  0  0  0  0  0  0  0  0  0  0  0
    4.4106   51.2775   24.3228 O   0  0  0  0  0  0  0  0  0  0  0  0
    3.1588   51.1940   26.1697 C   0  0  0  0  0  0  0  0  0  0  0  0
    3.6853   48.9704   30.2580 O   0  0  0  0  0  0  0  0  0  0  0  0
    2.8881   51.0802   30.3708 O   0  0  0  0  0  0  0  0  0  0  0  0
    3.0983   51.7246   23.9558 C   0  0  0  0  0  0  0  0  0  0  0  0
    2.3304   51.6558   25.1651 O   0  0  0  0  0  0  0  0  0  0  0  0
    8.8127   40.1847   34.2122 O   0  0  0  0  0  0  0  0  0  0  0  0
   11.2421   40.7941   33.3697 O   0  0  0  0  0  0  0  0  0  0  0  0
   10.9187   40.6911   31.9971 C   0  0  0  0  0  0  0  0  0  0  0  0
   11.5172   39.3815   31.4407 C   0  0  0  0  0  0  0  0  0  0  0  0
   12.7493   39.0856   32.0728 O   0  0  0  0  0  0  0  0  0  0  0  0
   10.6023   38.1908   31.6665 C   0  0  0  0  0  0  0  0  0  0  0  0
   12.9319   37.6781   32.0281 C   0  0  0  0  0  0  0  0  0  0  0  0
    9.6392   38.0798   30.6452 O   0  0  0  0  0  0  0  0  0  0  0  0
   11.5715   37.0166   31.7056 C   0  0  0  0  0  0  0  0  0  0  0  0
   13.4847   37.2121   33.3235 N   0  0  0  0  0  0  0  0  0  0  0  0
   11.6187   36.3384   30.4695 O   0  0  0  0  0  0  0  0  0  0  0  0
   14.4801   36.3321   33.5724 C   0  0  0  0  0  0  0  0  0  0  0  0
   13.1137   37.6275   34.5688 C   0  0  0  0  0  0  0  0  0  0  0  0
   15.2073   35.6153   32.6738 N   0  0  0  0  0  0  0  0  0  0  0  0
   14.6759   36.2308   34.9179 C   0  0  0  0  0  0  0  0  0  0  0  0
   13.8216   37.0452   35.5781 N   0  0  0  0  0  0  0  0  0  0  0  0
   16.1640   34.7602   33.1546 C   0  0  0  0  0  0  0  0  0  0  0  0
   15.6526   35.3508   35.4129 C   0  0  0  0  0  0  0  0  0  0  0  0
   16.3794   34.6317   34.5041 N   0  0  0  0  0  0  0  0  0  0  0  0
   15.8999   35.1935   36.8088 N   0  0  0  0  0  0  0  0  0  0  0  0
    9.0121   45.4316   33.6717 H   0  0  0  0  0  0  0  0  0  0  0  0
   10.7259   46.9687   33.1213 H   0  0  0  0  0  0  0  0  0  0  0  0
   11.8906   45.7658   32.9470 H   0  0  0  0  0  0  0  0  0  0  0  0
    9.3413   43.8329   31.4764 H   0  0  0  0  0  0  0  0  0  0  0  0
   10.7229   44.8814   31.1558 H   0  0  0  0  0  0  0  0  0  0  0  0
    7.0085   44.7162   31.5802 H   0  0  0  0  0  0  0  0  0  0  0  0
   10.3469   47.1827   30.4091 H   0  0  0  0  0  0  0  0  0  0  0  0
    5.4628   46.3055   30.5005 H   0  0  0  0  0  0  0  0  0  0  0  0
    8.8227   48.7554   29.3401 H   0  0  0  0  0  0  0  0  0  0  0  0
    7.2635   49.7285   28.0536 H   0  0  0  0  0  0  0  0  0  0  0  0
    6.7459   51.8488   29.3648 H   0  0  0  0  0  0  0  0  0  0  0  0
    7.6272   50.5913   30.2945 H   0  0  0  0  0  0  0  0  0  0  0  0
    5.8763   50.8303   30.5795 H   0  0  0  0  0  0  0  0  0  0  0  0
    6.4132   50.3498   26.0194 H   0  0  0  0  0  0  0  0  0  0  0  0
    1.8517   51.1497   27.8716 H   0  0  0  0  0  0  0  0  0  0  0  0
    2.6641   51.0513   23.1873 H   0  0  0  0  0  0  0  0  0  0  0  0
    3.1383   52.7707   23.5863 H   0  0  0  0  0  0  0  0  0  0  0  0
    9.8300   40.7410   31.7613 H   0  0  0  0  0  0  0  0  0  0  0  0
   11.3968   41.5460   31.4729 H   0  0  0  0  0  0  0  0  0  0  0  0
   11.6975   39.5067   30.3481 H   0  0  0  0  0  0  0  0  0  0  0  0
   10.1077   38.2648   32.6645 H   0  0  0  0  0  0  0  0  0  0  0  0
   13.6621   37.4467   31.2209 H   0  0  0  0  0  0  0  0  0  0  0  0
    8.8975   38.6944   30.8831 H   0  0  0  0  0  0  0  0  0  0  0  0
   11.2806   36.3073   32.5170 H   0  0  0  0  0  0  0  0  0  0  0  0
   10.8492   35.7110   30.4586 H   0  0  0  0  0  0  0  0  0  0  0  0
   12.3290   38.3524   34.7444 H   0  0  0  0  0  0  0  0  0  0  0  0
   16.7559   34.1780   32.4619 H   0  0  0  0  0  0  0  0  0  0  0  0
   15.3531   35.7362   37.5137 H   0  0  0  0  0  0  0  0  0  0  0  0
   16.6344   34.5301   37.1414 H   0  0  0  0  0  0  0  0  0  0  0  0
  1  2  2  0
  1  3  1  0
  3  4  1  0
  4  5  1  0
  6  1  1  0
  7  6  1  0
  6  8  1  0
  8  9  1  0
  9 10  2  0
 11  9  1  0
 10 12  1  0
 13 11  2  0
 12 14  2  0
 14 13  1  0
 14 15  1  0
 15 16  1  0
 16 17  1  0
 16 18  1  0
 18 19  2  0
 20 18  1  0
 19 21  1  0
 22 20  2  0
 20 23  1  0
 21 24  1  0
 21 25  2  0
 25 22  1  0
 23 26  1  0
 23 27  2  0
 24 28  1  0
 25 29  1  0
 28 29  1  0
  4 30  2  0
  4 31  1  0
 32 31  1  0
 32 33  1  0
 33 34  1  0
 33 35  1  0
 34 36  1  0
 35 37  1  0
 35 38  1  0
 38 36  1  0
 36 39  1  0
 38 40  1  0
 41 39  1  0
 42 39  1  0
 43 41  2  0
 41 44  1  0
 45 42  2  0
 46 43  1  0
 44 47  2  0
 44 45  1  0
 48 46  2  0
 48 47  1  0
 47 49  1  0
  6 50  1  1
  7 51  1  0
  7 52  1  0
  8 53  1  0
  8 54  1  0
 10 55  1  0
 11 56  1  0
 12 57  1  0
 13 58  1  0
 16 59  1  6
 17 60  1  0
 17 61  1  0
 17 62  1  0
 19 63  1  0
 22 64  1  0
 28 65  1  0
 28 66  1  0
 32 67  1  0
 32 68  1  0
 33 69  1  0
 35 70  1  0
 36 71  1  0
 37 72  1  0
 38 73  1  0
 40 74  1  0
 42 75  1  0
 46 76  1  0
 49 77  1  0
 49 78  1  0
M  CHG  3   5  -1  23   1  26  -1
M  END
>  <EmbedRMS>  (175) 
0.082929646769

$$$$

     RDKit          3D

 78 83  0  0  0  0  0  0  0  0999 V2000
   10.2834   43.7662   33.8258 C   0  0  0  0  0  0  0  0  0  0  0  0
   11.4102   43.5929   34.3753 O   0  0  0  0  0  0  0  0  0  0  0  0
    9.3635   42.7257   33.7353 O   0  0  0  0  0  0  0  0  0  0  0  0
    9.8899   41.2269   34.2948 P   0  0  0  0  0  0  0  0  0  0  0  0
   10.3732   41.4562   35.8842 O   0  0  0  0  0  0  0  0  0  0  0  0
    9.9547   45.0695   33.2037 C   0  0  1  0  0  0  0  0  0  0  0  0
   11.0274   46.0321   33.4757 N   0  0  0  0  0  0  0  0  0  0  0  0
    9.7465   44.8481   31.6879 C   0  0  0  0  0  0  0  0  0  0  0  0
    8.7922   45.8410   31.0850 C   0  0  0  0  0  0  0  0  0  0  0  0
    7.4058   45.6014   31.0988 C   0  0  0  0  0  0  0  0  0  0  0  0
    9.2820   46.9874   30.4421 C   0  0  0  0  0  0  0  0  0  0  0  0
    6.5273   46.5026   30.4829 C   0  0  0  0  0  0  0  0  0  0  0  0
    8.4034   47.8895   29.8305 C   0  0  0  0  0  0  0  0  0  0  0  0
    7.0132   47.6545   29.8487 C   0  0  0  0  0  0  0  0  0  0  0  0
    6.0819   48.5185   29.2487 O   0  0  0  0  0  0  0  0  0  0  0  0
    6.3611   49.8040   28.6920 C   0  0  2  0  0  0  0  0  0  0  0  0
    6.6638   50.8307   29.7922 C   0  0  0  0  0  0  0  0  0  0  0  0
    5.1924   50.2503   27.8274 C   0  0  0  0  0  0  0  0  0  0  0  0
    5.4391   50.4932   26.4525 C   0  0  0  0  0  0  0  0  0  0  0  0
    3.8707   50.4752   28.3468 C   0  0  0  0  0  0  0  0  0  0  0  0
    4.3981   50.9568   25.6591 C   0  0  0  0  0  0  0  0  0  0  0  0
    2.8555   50.9619   27.4924 C   0  0  0  0  0  0  0  0  0  0  0  0
    3.5426   50.2338   29.7220 N   0  0  0  0  0  0  0  0  0  0  0  0
    4.4154   51.2608   24.3114 O   0  0  0  0  0  0  0  0  0  0  0  0
    3.1621   51.1840   26.1575 C   0  0  0  0  0  0  0  0  0  0  0  0
    3.6853   48.9745   30.2541 O   0  0  0  0  0  0  0  0  0  0  0  0
    2.8871   51.0843   30.3585 O   0  0  0  0  0  0  0  0  0  0  0  0
    3.1035   51.7070   23.9417 C   0  0  0  0  0  0  0  0  0  0  0  0
    2.3346   51.6426   25.1505 O   0  0  0  0  0  0  0  0  0  0  0  0
    8.8120   40.1850   34.2133 O   0  0  0  0  0  0  0  0  0  0  0  0
   11.2403   40.7947   33.3700 O   0  0  0  0  0  0  0  0  0  0  0  0
   10.9144   40.6914   31.9983 C   0  0  0  0  0  0  0  0  0  0  0  0
   11.5270   39.3912   31.4385 C   0  0  0  0  0  0  0  0  0  0  0  0
   12.7520   39.0911   32.0836 O   0  0  0  0  0  0  0  0  0  0  0  0
   10.6114   38.1932   31.6451 C   0  0  0  0  0  0  0  0  0  0  0  0
   12.9413   37.6838   32.0297 C   0  0  0  0  0  0  0  0  0  0  0  0
    9.6065   38.0878   30.6599 O   0  0  0  0  0  0  0  0  0  0  0  0
   11.5822   37.0197   31.6877 C   0  0  0  0  0  0  0  0  0  0  0  0
   13.4840   37.2104   33.3254 N   0  0  0  0  0  0  0  0  0  0  0  0
   11.6179   36.3072   30.4690 O   0  0  0  0  0  0  0  0  0  0  0  0
   14.4797   36.3309   33.5738 C   0  0  0  0  0  0  0  0  0  0  0  0
   13.1136   37.6269   34.5702 C   0  0  0  0  0  0  0  0  0  0  0  0
   15.2074   35.6152   32.6747 N   0  0  0  0  0  0  0  0  0  0  0  0
   14.6756   36.2298   34.9190 C   0  0  0  0  0  0  0  0  0  0  0  0
   13.8217   37.0445   35.5793 N   0  0  0  0  0  0  0  0  0  0  0  0
   16.1643   34.7603   33.1551 C   0  0  0  0  0  0  0  0  0  0  0  0
   15.6528   35.3503   35.4136 C   0  0  0  0  0  0  0  0  0  0  0  0
   16.3798   34.6316   34.5046 N   0  0  0  0  0  0  0  0  0  0  0  0
   15.9004   35.1930   36.8094 N   0  0  0  0  0  0  0  0  0  0  0  0
    9.0122   45.4318   33.6717 H   0  0  0  0  0  0  0  0  0  0  0  0
   10.7261   46.9687   33.1213 H   0  0  0  0  0  0  0  0  0  0  0  0
   11.8906   45.7657   32.9470 H   0  0  0  0  0  0  0  0  0  0  0  0
   10.7228   44.8814   31.1558 H   0  0  0  0  0  0  0  0  0  0  0  0
    9.3412   43.8330   31.4765 H   0  0  0  0  0  0  0  0  0  0  0  0
    7.0085   44.7164   31.5804 H   0  0  0  0  0  0  0  0  0  0  0  0
   10.3469   47.1827   30.4092 H   0  0  0  0  0  0  0  0  0  0  0  0
    5.4628   46.3055   30.5005 H   0  0  0  0  0  0  0  0  0  0  0  0
    8.8228   48.7553   29.3401 H   0  0  0  0  0  0  0  0  0  0  0  0
    7.2647   49.7242   28.0497 H   0  0  0  0  0  0  0  0  0  0  0  0
    6.7469   51.8483   29.3542 H   0  0  0  0  0  0  0  0  0  0  0  0
    7.6265   50.5931   30.2886 H   0  0  0  0  0  0  0  0  0  0  0  0
    5.8756   50.8339   30.5710 H   0  0  0  0  0  0  0  0  0  0  0  0
    6.4163   50.3384   26.0128 H   0  0  0  0  0  0  0  0  0  0  0  0
    1.8534   51.1459   27.8584 H   0  0  0  0  0  0  0  0  0  0  0  0
    2.6697   51.0311   23.1752 H   0  0  0  0  0  0  0  0  0  0  0  0
    3.1441   52.7518   23.5686 H   0  0  0  0  0  0  0  0  0  0  0  0
   11.3776   41.5549   31.4745 H   0  0  0  0  0  0  0  0  0  0  0  0
    9.8234   40.7201   31.7654 H   0  0  0  0  0  0  0  0  0  0  0  0
   11.7312   39.5363   30.3532 H   0  0  0  0  0  0  0  0  0  0  0  0
   10.1203   38.2696   32.6410 H   0  0  0  0  0  0  0  0  0  0  0  0
   13.6850   37.4639   31.2321 H   0  0  0  0  0  0  0  0  0  0  0  0
   10.0251   38.1792   29.7654 H   0  0  0  0  0  0  0  0  0  0  0  0
   11.2757   36.3135   32.4907 H   0  0  0  0  0  0  0  0  0  0  0  0
   11.9838   36.9111   29.7708 H   0  0  0  0  0  0  0  0  0  0  0  0
   12.3307   38.3536   34.7458 H   0  0  0  0  0  0  0  0  0  0  0  0
   16.7565   34.1786   32.4623 H   0  0  0  0  0  0  0  0  0  0  0  0
   16.6353   34.5300   37.1418 H   0  0  0  0  0  0  0  0  0  0  0  0
   15.3535   35.7355   37.5144 H   0  0  0  0  0  0  0  0  0  0  0  0
  1  2  2  0
  1  3  1  0
  3  4  1  0
  4  5  1  0
  6  1  1  0
  7  6  1  0
  6  8  1  0
  8  9  1  0
  9 10  2  0
 11  9  1  0
 10 12  1  0
 13 11  2  0
 12 14  2  0
 14 13  1  0
 14 15  1  0
 15 16  1  0
 16 17  1  0
 16 18  1  0
 18 19  2  0
 20 18  1  0
 19 21  1  0
 22 20  2  0
 20 23  1  0
 21 24  1  0
 21 25  2  0
 25 22  1  0
 23 26  1  0
 23 27  2  0
 24 28  1  0
 25 29  1  0
 28 29  1  0
  4 30  2  0
  4 31  1  0
 32 31  1  0
 32 33  1  0
 33 34  1  0
 33 35  1  0
 34 36  1  0
 35 37  1  0
 35 38  1  0
 38 36  1  0
 36 39  1  0
 38 40  1  0
 41 39  1  0
 42 39  1  0
 43 41  2  0
 41 44  1  0
 45 42  2  0
 46 43  1  0
 44 47  2  0
 44 45  1  0
 48 46  2  0
 48 47  1  0
 47 49  1  0
  6 50  1  1
  7 51  1  0
  7 52  1  0
  8 53  1  0
  8 54  1  0
 10 55  1  0
 11 56  1  0
 12 57  1  0
 13 58  1  0
 16 59  1  6
 17 60  1  0
 17 61  1  0
 17 62  1  0
 19 63  1  0
 22 64  1  0
 28 65  1  0
 28 66  1  0
 32 67  1  0
 32 68  1  0
 33 69  1  0
 35 70  1  0
 36 71  1  0
 37 72  1  0
 38 73  1  0
 40 74  1  0
 42 75  1  0
 46 76  1  0
 49 77  1  0
 49 78  1  0
M  CHG  3   5  -1  23   1  26  -1
M  END
>  <EmbedRMS>  (176) 
0.0808171055667

$$$$

     RDKit          3D

 78 83  0  0  0  0  0  0  0  0999 V2000
   10.2837   43.7628   33.8277 C   0  0  0  0  0  0  0  0  0  0  0  0
   11.4102   43.5863   34.3766 O   0  0  0  0  0  0  0  0  0  0  0  0
    9.3628   42.7238   33.7357 O   0  0  0  0  0  0  0  0  0  0  0  0
    9.8890   41.2252   34.2949 P   0  0  0  0  0  0  0  0  0  0  0  0
   10.3724   41.4548   35.8843 O   0  0  0  0  0  0  0  0  0  0  0  0
    9.9548   45.0701   33.2064 C   0  0  1  0  0  0  0  0  0  0  0  0
   11.0197   46.0482   33.4571 N   0  0  0  0  0  0  0  0  0  0  0  0
    9.7506   44.8512   31.6923 C   0  0  0  0  0  0  0  0  0  0  0  0
    8.7944   45.8418   31.0868 C   0  0  0  0  0  0  0  0  0  0  0  0
    7.4077   45.6003   31.1002 C   0  0  0  0  0  0  0  0  0  0  0  0
    9.2827   46.9890   30.4440 C   0  0  0  0  0  0  0  0  0  0  0  0
    6.5260   46.4995   30.4848 C   0  0  0  0  0  0  0  0  0  0  0  0
    8.4008   47.8879   29.8327 C   0  0  0  0  0  0  0  0  0  0  0  0
    7.0192   47.6560   29.8473 C   0  0  0  0  0  0  0  0  0  0  0  0
    6.1811   48.5949   29.2239 O   0  0  0  0  0  0  0  0  0  0  0  0
    4.7517   48.5397   29.1937 C   0  0  2  0  0  0  0  0  0  0  0  0
    4.2396   49.6164   28.2399 C   0  0  0  0  0  0  0  0  0  0  0  0
    4.1644   48.7641   30.5776 C   0  0  0  0  0  0  0  0  0  0  0  0
    4.7865   49.7004   31.4407 C   0  0  0  0  0  0  0  0  0  0  0  0
    2.9468   48.1327   30.9935 C   0  0  0  0  0  0  0  0  0  0  0  0
    4.2017   49.9573   32.6738 C   0  0  0  0  0  0  0  0  0  0  0  0
    2.3896   48.4443   32.2538 C   0  0  0  0  0  0  0  0  0  0  0  0
    2.2584   47.2006   30.1490 N   0  0  0  0  0  0  0  0  0  0  0  0
    4.6328   50.8158   33.6667 O   0  0  0  0  0  0  0  0  0  0  0  0
    3.0539   49.3561   33.0632 C   0  0  0  0  0  0  0  0  0  0  0  0
    2.8742   46.0279   29.7790 O   0  0  0  0  0  0  0  0  0  0  0  0
    1.0268   47.3132   29.9809 O   0  0  0  0  0  0  0  0  0  0  0  0
    3.6954   50.7456   34.7499 C   0  0  0  0  0  0  0  0  0  0  0  0
    2.7029   49.8026   34.3226 O   0  0  0  0  0  0  0  0  0  0  0  0
    8.8112   40.1834   34.2131 O   0  0  0  0  0  0  0  0  0  0  0  0
   11.2398   40.7938   33.3702 O   0  0  0  0  0  0  0  0  0  0  0  0
   10.9144   40.6912   31.9983 C   0  0  0  0  0  0  0  0  0  0  0  0
   11.5270   39.3911   31.4385 C   0  0  0  0  0  0  0  0  0  0  0  0
   12.7520   39.0911   32.0835 O   0  0  0  0  0  0  0  0  0  0  0  0
   10.6113   38.1931   31.6451 C   0  0  0  0  0  0  0  0  0  0  0  0
   12.9413   37.6837   32.0297 C   0  0  0  0  0  0  0  0  0  0  0  0
    9.6064   38.0877   30.6598 O   0  0  0  0  0  0  0  0  0  0  0  0
   11.5822   37.0197   31.6876 C   0  0  0  0  0  0  0  0  0  0  0  0
   13.4840   37.2104   33.3254 N   0  0  0  0  0  0  0  0  0  0  0  0
   11.6179   36.3071   30.4690 O   0  0  0  0  0  0  0  0  0  0  0  0
   14.4797   36.3309   33.5738 C   0  0  0  0  0  0  0  0  0  0  0  0
   13.1136   37.6269   34.5702 C   0  0  0  0  0  0  0  0  0  0  0  0
   15.2074   35.6152   32.6747 N   0  0  0  0  0  0  0  0  0  0  0  0
   14.6756   36.2298   34.9190 C   0  0  0  0  0  0  0  0  0  0  0  0
   13.8217   37.0445   35.5793 N   0  0  0  0  0  0  0  0  0  0  0  0
   16.1643   34.7603   33.1551 C   0  0  0  0  0  0  0  0  0  0  0  0
   15.6528   35.3503   35.4136 C   0  0  0  0  0  0  0  0  0  0  0  0
   16.3798   34.6316   34.5046 N   0  0  0  0  0  0  0  0  0  0  0  0
   15.9004   35.1930   36.8094 N   0  0  0  0  0  0  0  0  0  0  0  0
    9.0097   45.4350   33.6669 H   0  0  0  0  0  0  0  0  0  0  0  0
   11.9349   45.6934   33.0930 H   0  0  0  0  0  0  0  0  0  0  0  0
   11.1130   46.1994   34.4884 H   0  0  0  0  0  0  0  0  0  0  0  0
    9.3519   43.8345   31.4759 H   0  0  0  0  0  0  0  0  0  0  0  0
   10.7310   44.8932   31.1677 H   0  0  0  0  0  0  0  0  0  0  0  0
    7.0125   44.7147   31.5826 H   0  0  0  0  0  0  0  0  0  0  0  0
   10.3467   47.1892   30.4143 H   0  0  0  0  0  0  0  0  0  0  0  0
    5.4686   46.2840   30.5134 H   0  0  0  0  0  0  0  0  0  0  0  0
    8.7934   48.7710   29.3446 H   0  0  0  0  0  0  0  0  0  0  0  0
    4.4513   47.5611   28.7717 H   0  0  0  0  0  0  0  0  0  0  0  0
    3.1309   49.5777   28.1759 H   0  0  0  0  0  0  0  0  0  0  0  0
    4.5490   50.6252   28.5883 H   0  0  0  0  0  0  0  0  0  0  0  0
    4.6569   49.4480   27.2244 H   0  0  0  0  0  0  0  0  0  0  0  0
    5.6913   50.2219   31.1557 H   0  0  0  0  0  0  0  0  0  0  0  0
    1.4710   47.9820   32.5919 H   0  0  0  0  0  0  0  0  0  0  0  0
    4.1986   50.3817   35.6702 H   0  0  0  0  0  0  0  0  0  0  0  0
    3.2312   51.7394   34.9211 H   0  0  0  0  0  0  0  0  0  0  0  0
    9.8235   40.7202   31.7651 H   0  0  0  0  0  0  0  0  0  0  0  0
   11.3780   41.5548   31.4750 H   0  0  0  0  0  0  0  0  0  0  0  0
   11.7311   39.5363   30.3531 H   0  0  0  0  0  0  0  0  0  0  0  0
   10.1202   38.2695   32.6409 H   0  0  0  0  0  0  0  0  0  0  0  0
   13.6850   37.4638   31.2321 H   0  0  0  0  0  0  0  0  0  0  0  0
   10.0251   38.1792   29.7654 H   0  0  0  0  0  0  0  0  0  0  0  0
   11.2757   36.3135   32.4907 H   0  0  0  0  0  0  0  0  0  0  0  0
   11.9838   36.9110   29.7708 H   0  0  0  0  0  0  0  0  0  0  0  0
   12.3307   38.3536   34.7457 H   0  0  0  0  0  0  0  0  0  0  0  0
   16.7566   34.1787   32.4623 H   0  0  0  0  0  0  0  0  0  0  0  0
   15.3535   35.7355   37.5144 H   0  0  0  0  0  0  0  0  0  0  0  0
   16.6353   34.5301   37.1419 H   0  0  0  0  0  0  0  0  0  0  0  0
  1  2  2  0
  1  3  1  0
  3  4  1  0
  4  5  1  0
  6  1  1  0
  7  6  1  0
  6  8  1  0
  8  9  1  0
  9 10  2  0
 11  9  1  0
 10 12  1  0
 13 11  2  0
 12 14  2  0
 14 13  1  0
 14 15  1  0
 15 16  1  0
 16 17  1  0
 16 18  1  0
 18 19  2  0
 20 18  1  0
 19 21  1  0
 22 20  2  0
 20 23  1  0
 21 24  1  0
 21 25  2  0
 25 22  1  0
 23 26  1  0
 23 27  2  0
 24 28  1  0
 25 29  1  0
 28 29  1  0
  4 30  2  0
  4 31  1  0
 32 31  1  0
 32 33  1  0
 33 34  1  0
 33 35  1  0
 34 36  1  0
 35 37  1  0
 35 38  1  0
 38 36  1  0
 36 39  1  0
 38 40  1  0
 41 39  1  0
 42 39  1  0
 43 41  2  0
 41 44  1  0
 45 42  2  0
 46 43  1  0
 44 47  2  0
 44 45  1  0
 48 46  2  0
 48 47  1  0
 47 49  1  0
  6 50  1  1
  7 51  1  0
  7 52  1  0
  8 53  1  0
  8 54  1  0
 10 55  1  0
 11 56  1  0
 12 57  1  0
 13 58  1  0
 16 59  1  6
 17 60  1  0
 17 61  1  0
 17 62  1  0
 19 63  1  0
 22 64  1  0
 28 65  1  0
 28 66  1  0
 32 67  1  0
 32 68  1  0
 33 69  1  0
 35 70  1  0
 36 71  1  0
 37 72  1  0
 38 73  1  0
 40 74  1  0
 42 75  1  0
 46 76  1  0
 49 77  1  0
 49 78  1  0
M  CHG  3   5  -1  23   1  26  -1
M  END
>  <EmbedRMS>  (177) 
0.0817324466267

$$$$

     RDKit          3D

 78 83  0  0  0  0  0  0  0  0999 V2000
   10.2838   43.7627   33.8276 C   0  0  0  0  0  0  0  0  0  0  0  0
   11.4103   43.5863   34.3766 O   0  0  0  0  0  0  0  0  0  0  0  0
    9.3631   42.7236   33.7353 O   0  0  0  0  0  0  0  0  0  0  0  0
    9.8894   41.2249   34.2944 P   0  0  0  0  0  0  0  0  0  0  0  0
   10.3726   41.4547   35.8838 O   0  0  0  0  0  0  0  0  0  0  0  0
    9.9548   45.0701   33.2064 C   0  0  1  0  0  0  0  0  0  0  0  0
   11.0197   46.0482   33.4572 N   0  0  0  0  0  0  0  0  0  0  0  0
    9.7506   44.8513   31.6923 C   0  0  0  0  0  0  0  0  0  0  0  0
    8.7944   45.8420   31.0870 C   0  0  0  0  0  0  0  0  0  0  0  0
    7.4078   45.6002   31.1001 C   0  0  0  0  0  0  0  0  0  0  0  0
    9.2827   46.9890   30.4439 C   0  0  0  0  0  0  0  0  0  0  0  0
    6.5259   46.4990   30.4844 C   0  0  0  0  0  0  0  0  0  0  0  0
    8.4009   47.8879   29.8324 C   0  0  0  0  0  0  0  0  0  0  0  0
    7.0192   47.6564   29.8477 C   0  0  0  0  0  0  0  0  0  0  0  0
    6.1811   48.5955   29.2244 O   0  0  0  0  0  0  0  0  0  0  0  0
    4.7512   48.5589   29.2305 C   0  0  2  0  0  0  0  0  0  0  0  0
    4.2285   49.6214   28.2654 C   0  0  0  0  0  0  0  0  0  0  0  0
    4.2160   48.8189   30.6289 C   0  0  0  0  0  0  0  0  0  0  0  0
    4.8087   49.8501   31.3986 C   0  0  0  0  0  0  0  0  0  0  0  0
    3.1742   48.0211   31.2093 C   0  0  0  0  0  0  0  0  0  0  0  0
    4.3853   50.0268   32.7090 C   0  0  0  0  0  0  0  0  0  0  0  0
    2.7970   48.2368   32.5540 C   0  0  0  0  0  0  0  0  0  0  0  0
    2.4863   47.0098   30.4569 N   0  0  0  0  0  0  0  0  0  0  0  0
    4.8276   50.9492   33.6376 O   0  0  0  0  0  0  0  0  0  0  0  0
    3.4262   49.2508   33.2640 C   0  0  0  0  0  0  0  0  0  0  0  0
    2.0755   45.8548   31.0813 O   0  0  0  0  0  0  0  0  0  0  0  0
    2.0527   47.2628   29.3142 O   0  0  0  0  0  0  0  0  0  0  0  0
    4.0972   50.7377   34.8536 C   0  0  0  0  0  0  0  0  0  0  0  0
    3.2129   49.6445   34.5711 O   0  0  0  0  0  0  0  0  0  0  0  0
    8.8113   40.1834   34.2129 O   0  0  0  0  0  0  0  0  0  0  0  0
   11.2402   40.7931   33.3696 O   0  0  0  0  0  0  0  0  0  0  0  0
   10.9151   40.6903   31.9975 C   0  0  0  0  0  0  0  0  0  0  0  0
   11.5252   39.3886   31.4375 C   0  0  0  0  0  0  0  0  0  0  0  0
   12.7500   39.0873   32.0798 O   0  0  0  0  0  0  0  0  0  0  0  0
   10.6092   38.1925   31.6469 C   0  0  0  0  0  0  0  0  0  0  0  0
   12.9332   37.6792   32.0294 C   0  0  0  0  0  0  0  0  0  0  0  0
    9.6122   38.0894   30.6542 O   0  0  0  0  0  0  0  0  0  0  0  0
   11.5743   37.0144   31.7024 C   0  0  0  0  0  0  0  0  0  0  0  0
   13.4844   37.2108   33.3241 N   0  0  0  0  0  0  0  0  0  0  0  0
   11.6297   36.3238   30.4740 O   0  0  0  0  0  0  0  0  0  0  0  0
   14.4802   36.3313   33.5726 C   0  0  0  0  0  0  0  0  0  0  0  0
   13.1138   37.6266   34.5692 C   0  0  0  0  0  0  0  0  0  0  0  0
   15.2075   35.6149   32.6739 N   0  0  0  0  0  0  0  0  0  0  0  0
   14.6761   36.2303   34.9181 C   0  0  0  0  0  0  0  0  0  0  0  0
   13.8220   37.0447   35.5784 N   0  0  0  0  0  0  0  0  0  0  0  0
   16.1643   34.7600   33.1547 C   0  0  0  0  0  0  0  0  0  0  0  0
   15.6529   35.3505   35.4130 C   0  0  0  0  0  0  0  0  0  0  0  0
   16.3798   34.6315   34.5042 N   0  0  0  0  0  0  0  0  0  0  0  0
   15.9002   35.1932   36.8090 N   0  0  0  0  0  0  0  0  0  0  0  0
    9.0098   45.4349   33.6670 H   0  0  0  0  0  0  0  0  0  0  0  0
   11.1130   46.1993   34.4886 H   0  0  0  0  0  0  0  0  0  0  0  0
   11.9349   45.6934   33.0931 H   0  0  0  0  0  0  0  0  0  0  0  0
   10.7310   44.8934   31.1678 H   0  0  0  0  0  0  0  0  0  0  0  0
    9.3520   43.8346   31.4758 H   0  0  0  0  0  0  0  0  0  0  0  0
    7.0128   44.7139   31.5815 H   0  0  0  0  0  0  0  0  0  0  0  0
   10.3467   47.1891   30.4141 H   0  0  0  0  0  0  0  0  0  0  0  0
    5.4684   46.2796   30.5091 H   0  0  0  0  0  0  0  0  0  0  0  0
    8.7936   48.7708   29.3441 H   0  0  0  0  0  0  0  0  0  0  0  0
    4.4312   47.5697   28.8437 H   0  0  0  0  0  0  0  0  0  0  0  0
    4.5811   50.6312   28.5662 H   0  0  0  0  0  0  0  0  0  0  0  0
    4.5970   49.4094   27.2394 H   0  0  0  0  0  0  0  0  0  0  0  0
    3.1178   49.6161   28.2489 H   0  0  0  0  0  0  0  0  0  0  0  0
    5.5923   50.4787   30.9949 H   0  0  0  0  0  0  0  0  0  0  0  0
    2.0192   47.6479   33.0228 H   0  0  0  0  0  0  0  0  0  0  0  0
    3.5133   51.6454   35.1136 H   0  0  0  0  0  0  0  0  0  0  0  0
    4.7914   50.4662   35.6763 H   0  0  0  0  0  0  0  0  0  0  0  0
   11.3805   41.5528   31.4740 H   0  0  0  0  0  0  0  0  0  0  0  0
    9.8243   40.7216   31.7640 H   0  0  0  0  0  0  0  0  0  0  0  0
   11.7265   39.5311   30.3512 H   0  0  0  0  0  0  0  0  0  0  0  0
   10.1110   38.2746   32.6387 H   0  0  0  0  0  0  0  0  0  0  0  0
   13.6652   37.4519   31.2226 H   0  0  0  0  0  0  0  0  0  0  0  0
   10.0511   38.1143   29.7644 H   0  0  0  0  0  0  0  0  0  0  0  0
   11.2762   36.3141   32.5189 H   0  0  0  0  0  0  0  0  0  0  0  0
   10.8593   35.6977   30.4640 H   0  0  0  0  0  0  0  0  0  0  0  0
   12.3294   38.3518   34.7449 H   0  0  0  0  0  0  0  0  0  0  0  0
   16.7564   34.1780   32.4620 H   0  0  0  0  0  0  0  0  0  0  0  0
   16.6348   34.5300   37.1416 H   0  0  0  0  0  0  0  0  0  0  0  0
   15.3534   35.7359   37.5138 H   0  0  0  0  0  0  0  0  0  0  0  0
  1  2  2  0
  1  3  1  0
  3  4  1  0
  4  5  1  0
  6  1  1  0
  7  6  1  0
  6  8  1  0
  8  9  1  0
  9 10  2  0
 11  9  1  0
 10 12  1  0
 13 11  2  0
 12 14  2  0
 14 13  1  0
 14 15  1  0
 15 16  1  0
 16 17  1  0
 16 18  1  0
 18 19  2  0
 20 18  1  0
 19 21  1  0
 22 20  2  0
 20 23  1  0
 21 24  1  0
 21 25  2  0
 25 22  1  0
 23 26  1  0
 23 27  2  0
 24 28  1  0
 25 29  1  0
 28 29  1  0
  4 30  2  0
  4 31  1  0
 32 31  1  0
 32 33  1  0
 33 34  1  0
 33 35  1  0
 34 36  1  0
 35 37  1  0
 35 38  1  0
 38 36  1  0
 36 39  1  0
 38 40  1  0
 41 39  1  0
 42 39  1  0
 43 41  2  0
 41 44  1  0
 45 42  2  0
 46 43  1  0
 44 47  2  0
 44 45  1  0
 48 46  2  0
 48 47  1  0
 47 49  1  0
  6 50  1  1
  7 51  1  0
  7 52  1  0
  8 53  1  0
  8 54  1  0
 10 55  1  0
 11 56  1  0
 12 57  1  0
 13 58  1  0
 16 59  1  6
 17 60  1  0
 17 61  1  0
 17 62  1  0
 19 63  1  0
 22 64  1  0
 28 65  1  0
 28 66  1  0
 32 67  1  0
 32 68  1  0
 33 69  1  0
 35 70  1  0
 36 71  1  0
 37 72  1  0
 38 73  1  0
 40 74  1  0
 42 75  1  0
 46 76  1  0
 49 77  1  0
 49 78  1  0
M  CHG  3   5  -1  23   1  26  -1
M  END
>  <EmbedRMS>  (178) 
0.0827067135294

$$$$

     RDKit          3D

 78 83  0  0  0  0  0  0  0  0999 V2000
   10.2835   43.7630   33.8277 C   0  0  0  0  0  0  0  0  0  0  0  0
   11.4101   43.5866   34.3765 O   0  0  0  0  0  0  0  0  0  0  0  0
    9.3627   42.7239   33.7357 O   0  0  0  0  0  0  0  0  0  0  0  0
    9.8893   41.2252   34.2943 P   0  0  0  0  0  0  0  0  0  0  0  0
   10.3730   41.4546   35.8836 O   0  0  0  0  0  0  0  0  0  0  0  0
    9.9544   45.0704   33.2067 C   0  0  1  0  0  0  0  0  0  0  0  0
   11.0194   46.0485   33.4572 N   0  0  0  0  0  0  0  0  0  0  0  0
    9.7499   44.8517   31.6927 C   0  0  0  0  0  0  0  0  0  0  0  0
    8.7939   45.8427   31.0876 C   0  0  0  0  0  0  0  0  0  0  0  0
    7.4064   45.5997   31.0987 C   0  0  0  0  0  0  0  0  0  0  0  0
    9.2834   46.9891   30.4416 C   0  0  0  0  0  0  0  0  0  0  0  0
    6.5271   46.4989   30.4803 C   0  0  0  0  0  0  0  0  0  0  0  0
    8.4023   47.8880   29.8284 C   0  0  0  0  0  0  0  0  0  0  0  0
    7.0197   47.6544   29.8585 C   0  0  0  0  0  0  0  0  0  0  0  0
    6.1266   48.5472   29.2573 O   0  0  0  0  0  0  0  0  0  0  0  0
    5.7110   49.7973   29.8251 C   0  0  2  0  0  0  0  0  0  0  0  0
    6.8667   50.7996   29.9280 C   0  0  0  0  0  0  0  0  0  0  0  0
    4.9971   49.5990   31.1598 C   0  0  0  0  0  0  0  0  0  0  0  0
    5.7364   49.1411   32.2815 C   0  0  0  0  0  0  0  0  0  0  0  0
    3.5813   49.7962   31.2991 C   0  0  0  0  0  0  0  0  0  0  0  0
    5.0575   48.8582   33.4587 C   0  0  0  0  0  0  0  0  0  0  0  0
    2.9429   49.4773   32.5181 C   0  0  0  0  0  0  0  0  0  0  0  0
    2.7834   50.3296   30.2340 N   0  0  0  0  0  0  0  0  0  0  0  0
    5.5696   48.3898   34.6533 O   0  0  0  0  0  0  0  0  0  0  0  0
    3.7193   49.0134   33.5704 C   0  0  0  0  0  0  0  0  0  0  0  0
    1.5536   49.7751   29.9648 O   0  0  0  0  0  0  0  0  0  0  0  0
    3.0559   51.4506   29.7571 O   0  0  0  0  0  0  0  0  0  0  0  0
    4.4800   48.2427   35.5740 C   0  0  0  0  0  0  0  0  0  0  0  0
    3.3168   48.6526   34.8419 O   0  0  0  0  0  0  0  0  0  0  0  0
    8.8113   40.1836   34.2130 O   0  0  0  0  0  0  0  0  0  0  0  0
   11.2397   40.7943   33.3684 O   0  0  0  0  0  0  0  0  0  0  0  0
   10.9125   40.6875   31.9969 C   0  0  0  0  0  0  0  0  0  0  0  0
   11.5169   39.3810   31.4420 C   0  0  0  0  0  0  0  0  0  0  0  0
   12.7500   39.0881   32.0759 O   0  0  0  0  0  0  0  0  0  0  0  0
   10.6043   38.1892   31.6658 C   0  0  0  0  0  0  0  0  0  0  0  0
   12.9395   37.6813   32.0280 C   0  0  0  0  0  0  0  0  0  0  0  0
    9.6353   38.0951   30.6499 O   0  0  0  0  0  0  0  0  0  0  0  0
   11.5804   37.0191   31.6934 C   0  0  0  0  0  0  0  0  0  0  0  0
   13.4851   37.2119   33.3244 N   0  0  0  0  0  0  0  0  0  0  0  0
   11.6118   36.3188   30.4673 O   0  0  0  0  0  0  0  0  0  0  0  0
   14.4801   36.3316   33.5732 C   0  0  0  0  0  0  0  0  0  0  0  0
   13.1139   37.6277   34.5692 C   0  0  0  0  0  0  0  0  0  0  0  0
   15.2076   35.6154   32.6744 N   0  0  0  0  0  0  0  0  0  0  0  0
   14.6756   36.2303   34.9186 C   0  0  0  0  0  0  0  0  0  0  0  0
   13.8215   37.0450   35.5786 N   0  0  0  0  0  0  0  0  0  0  0  0
   16.1642   34.7602   33.1551 C   0  0  0  0  0  0  0  0  0  0  0  0
   15.6526   35.3505   35.4134 C   0  0  0  0  0  0  0  0  0  0  0  0
   16.3796   34.6316   34.5045 N   0  0  0  0  0  0  0  0  0  0  0  0
   15.9001   35.1933   36.8093 N   0  0  0  0  0  0  0  0  0  0  0  0
    9.0094   45.4354   33.6673 H   0  0  0  0  0  0  0  0  0  0  0  0
   11.9345   45.6936   33.0931 H   0  0  0  0  0  0  0  0  0  0  0  0
   11.1127   46.1998   34.4885 H   0  0  0  0  0  0  0  0  0  0  0  0
   10.7302   44.8934   31.1679 H   0  0  0  0  0  0  0  0  0  0  0  0
    9.3507   43.8351   31.4763 H   0  0  0  0  0  0  0  0  0  0  0  0
    7.0100   44.7143   31.5803 H   0  0  0  0  0  0  0  0  0  0  0  0
   10.3480   47.1852   30.4060 H   0  0  0  0  0  0  0  0  0  0  0  0
    5.4619   46.3064   30.4977 H   0  0  0  0  0  0  0  0  0  0  0  0
    8.7979   48.7573   29.3205 H   0  0  0  0  0  0  0  0  0  0  0  0
    5.0143   50.2298   29.0841 H   0  0  0  0  0  0  0  0  0  0  0  0
    7.6359   50.4699   30.6550 H   0  0  0  0  0  0  0  0  0  0  0  0
    7.3467   50.9214   28.9340 H   0  0  0  0  0  0  0  0  0  0  0  0
    6.4783   51.7884   30.2529 H   0  0  0  0  0  0  0  0  0  0  0  0
    6.8053   48.9845   32.2391 H   0  0  0  0  0  0  0  0  0  0  0  0
    1.8763   49.6104   32.6460 H   0  0  0  0  0  0  0  0  0  0  0  0
    4.6301   48.9013   36.4550 H   0  0  0  0  0  0  0  0  0  0  0  0
    4.3820   47.1820   35.8866 H   0  0  0  0  0  0  0  0  0  0  0  0
   11.3811   41.5456   31.4691 H   0  0  0  0  0  0  0  0  0  0  0  0
    9.8216   40.7222   31.7644 H   0  0  0  0  0  0  0  0  0  0  0  0
   11.6986   39.5089   30.3498 H   0  0  0  0  0  0  0  0  0  0  0  0
   10.1109   38.2736   32.6630 H   0  0  0  0  0  0  0  0  0  0  0  0
   13.6783   37.4561   31.2271 H   0  0  0  0  0  0  0  0  0  0  0  0
    9.0020   37.3859   30.9348 H   0  0  0  0  0  0  0  0  0  0  0  0
   11.2808   36.3052   32.4921 H   0  0  0  0  0  0  0  0  0  0  0  0
   11.8818   36.9599   29.7584 H   0  0  0  0  0  0  0  0  0  0  0  0
   12.3303   38.3538   34.7446 H   0  0  0  0  0  0  0  0  0  0  0  0
   16.7564   34.1783   32.4624 H   0  0  0  0  0  0  0  0  0  0  0  0
   16.6348   34.5301   37.1418 H   0  0  0  0  0  0  0  0  0  0  0  0
   15.3532   35.7359   37.5142 H   0  0  0  0  0  0  0  0  0  0  0  0
  1  2  2  0
  1  3  1  0
  3  4  1  0
  4  5  1  0
  6  1  1  0
  7  6  1  0
  6  8  1  0
  8  9  1  0
  9 10  2  0
 11  9  1  0
 10 12  1  0
 13 11  2  0
 12 14  2  0
 14 13  1  0
 14 15  1  0
 15 16  1  0
 16 17  1  0
 16 18  1  0
 18 19  2  0
 20 18  1  0
 19 21  1  0
 22 20  2  0
 20 23  1  0
 21 24  1  0
 21 25  2  0
 25 22  1  0
 23 26  1  0
 23 27  2  0
 24 28  1  0
 25 29  1  0
 28 29  1  0
  4 30  2  0
  4 31  1  0
 32 31  1  0
 32 33  1  0
 33 34  1  0
 33 35  1  0
 34 36  1  0
 35 37  1  0
 35 38  1  0
 38 36  1  0
 36 39  1  0
 38 40  1  0
 41 39  1  0
 42 39  1  0
 43 41  2  0
 41 44  1  0
 45 42  2  0
 46 43  1  0
 44 47  2  0
 44 45  1  0
 48 46  2  0
 48 47  1  0
 47 49  1  0
  6 50  1  1
  7 51  1  0
  7 52  1  0
  8 53  1  0
  8 54  1  0
 10 55  1  0
 11 56  1  0
 12 57  1  0
 13 58  1  0
 16 59  1  6
 17 60  1  0
 17 61  1  0
 17 62  1  0
 19 63  1  0
 22 64  1  0
 28 65  1  0
 28 66  1  0
 32 67  1  0
 32 68  1  0
 33 69  1  0
 35 70  1  0
 36 71  1  0
 37 72  1  0
 38 73  1  0
 40 74  1  0
 42 75  1  0
 46 76  1  0
 49 77  1  0
 49 78  1  0
M  CHG  3   5  -1  23   1  26  -1
M  END
>  <EmbedRMS>  (179) 
0.082552374801

$$$$

     RDKit          3D

 78 83  0  0  0  0  0  0  0  0999 V2000
   10.2845   43.7668   33.8243 C   0  0  0  0  0  0  0  0  0  0  0  0
   11.4108   43.5935   34.3746 O   0  0  0  0  0  0  0  0  0  0  0  0
    9.3644   42.7263   33.7334 O   0  0  0  0  0  0  0  0  0  0  0  0
    9.8899   41.2271   34.2936 P   0  0  0  0  0  0  0  0  0  0  0  0
   10.3710   41.4557   35.8837 O   0  0  0  0  0  0  0  0  0  0  0  0
    9.9566   45.0706   33.2030 C   0  0  1  0  0  0  0  0  0  0  0  0
   11.0297   46.0324   33.4768 N   0  0  0  0  0  0  0  0  0  0  0  0
    9.7503   44.8510   31.6868 C   0  0  0  0  0  0  0  0  0  0  0  0
    8.7944   45.8426   31.0851 C   0  0  0  0  0  0  0  0  0  0  0  0
    7.4092   45.5983   31.0988 C   0  0  0  0  0  0  0  0  0  0  0  0
    9.2807   46.9930   30.4458 C   0  0  0  0  0  0  0  0  0  0  0  0
    6.5285   46.4964   30.4832 C   0  0  0  0  0  0  0  0  0  0  0  0
    8.3989   47.8937   29.8345 C   0  0  0  0  0  0  0  0  0  0  0  0
    7.0105   47.6470   29.8452 C   0  0  0  0  0  0  0  0  0  0  0  0
    6.0731   48.4893   29.2270 O   0  0  0  0  0  0  0  0  0  0  0  0
    6.3292   49.7764   28.6602 C   0  0  2  0  0  0  0  0  0  0  0  0
    6.5189   50.8108   29.7741 C   0  0  0  0  0  0  0  0  0  0  0  0
    5.1499   50.1724   27.7904 C   0  0  0  0  0  0  0  0  0  0  0  0
    3.8399   49.9243   28.2693 C   0  0  0  0  0  0  0  0  0  0  0  0
    5.3182   50.8397   26.5334 C   0  0  0  0  0  0  0  0  0  0  0  0
    2.7619   50.3175   27.4897 C   0  0  0  0  0  0  0  0  0  0  0  0
    4.1847   51.2382   25.7931 C   0  0  0  0  0  0  0  0  0  0  0  0
    6.6183   51.1270   26.0050 N   0  0  0  0  0  0  0  0  0  0  0  0
    1.4144   50.1569   27.7456 O   0  0  0  0  0  0  0  0  0  0  0  0
    2.9263   50.9482   26.3046 C   0  0  0  0  0  0  0  0  0  0  0  0
    7.4685   50.0949   25.6783 O   0  0  0  0  0  0  0  0  0  0  0  0
    6.8887   52.2824   25.6135 O   0  0  0  0  0  0  0  0  0  0  0  0
    0.6865   50.7177   26.6464 C   0  0  0  0  0  0  0  0  0  0  0  0
    1.6900   51.2189   25.7528 O   0  0  0  0  0  0  0  0  0  0  0  0
    8.8125   40.1846   34.2116 O   0  0  0  0  0  0  0  0  0  0  0  0
   11.2403   40.7955   33.3684 O   0  0  0  0  0  0  0  0  0  0  0  0
   10.9125   40.6883   31.9970 C   0  0  0  0  0  0  0  0  0  0  0  0
   11.5165   39.3820   31.4416 C   0  0  0  0  0  0  0  0  0  0  0  0
   12.7503   39.0893   32.0747 O   0  0  0  0  0  0  0  0  0  0  0  0
   10.6041   38.1891   31.6663 C   0  0  0  0  0  0  0  0  0  0  0  0
   12.9392   37.6823   32.0285 C   0  0  0  0  0  0  0  0  0  0  0  0
    9.6353   38.0923   30.6505 O   0  0  0  0  0  0  0  0  0  0  0  0
   11.5808   37.0196   31.6948 C   0  0  0  0  0  0  0  0  0  0  0  0
   13.4856   37.2135   33.3248 N   0  0  0  0  0  0  0  0  0  0  0  0
   11.6120   36.3166   30.4701 O   0  0  0  0  0  0  0  0  0  0  0  0
   14.4800   36.3324   33.5734 C   0  0  0  0  0  0  0  0  0  0  0  0
   13.1135   37.6283   34.5696 C   0  0  0  0  0  0  0  0  0  0  0  0
   15.2072   35.6163   32.6743 N   0  0  0  0  0  0  0  0  0  0  0  0
   14.6746   36.2296   34.9186 C   0  0  0  0  0  0  0  0  0  0  0  0
   13.8199   37.0440   35.5789 N   0  0  0  0  0  0  0  0  0  0  0  0
   16.1632   34.7601   33.1545 C   0  0  0  0  0  0  0  0  0  0  0  0
   15.6518   35.3496   35.4127 C   0  0  0  0  0  0  0  0  0  0  0  0
   16.3787   34.6309   34.5037 N   0  0  0  0  0  0  0  0  0  0  0  0
   15.8999   35.1929   36.8083 N   0  0  0  0  0  0  0  0  0  0  0  0
    9.0136   45.4314   33.6709 H   0  0  0  0  0  0  0  0  0  0  0  0
   11.8929   45.7653   32.9484 H   0  0  0  0  0  0  0  0  0  0  0  0
   10.7302   46.9706   33.1248 H   0  0  0  0  0  0  0  0  0  0  0  0
    9.3474   43.8360   31.4731 H   0  0  0  0  0  0  0  0  0  0  0  0
   10.7268   44.8873   31.1549 H   0  0  0  0  0  0  0  0  0  0  0  0
    7.0149   44.7116   31.5802 H   0  0  0  0  0  0  0  0  0  0  0  0
   10.3448   47.1926   30.4161 H   0  0  0  0  0  0  0  0  0  0  0  0
    5.4647   46.2937   30.4967 H   0  0  0  0  0  0  0  0  0  0  0  0
    8.8123   48.7674   29.3525 H   0  0  0  0  0  0  0  0  0  0  0  0
    7.2543   49.7326   28.0572 H   0  0  0  0  0  0  0  0  0  0  0  0
    6.6761   51.8199   29.3365 H   0  0  0  0  0  0  0  0  0  0  0  0
    5.6248   50.8418   30.4344 H   0  0  0  0  0  0  0  0  0  0  0  0
    7.4060   50.5551   30.3879 H   0  0  0  0  0  0  0  0  0  0  0  0
    3.6664   49.4421   29.2233 H   0  0  0  0  0  0  0  0  0  0  0  0
    4.2843   51.7416   24.8399 H   0  0  0  0  0  0  0  0  0  0  0  0
    0.0860   49.9313   26.1427 H   0  0  0  0  0  0  0  0  0  0  0  0
    0.0367   51.5471   26.9982 H   0  0  0  0  0  0  0  0  0  0  0  0
    9.8216   40.7206   31.7641 H   0  0  0  0  0  0  0  0  0  0  0  0
   11.3792   41.5480   31.4700 H   0  0  0  0  0  0  0  0  0  0  0  0
   11.6959   39.5114   30.3488 H   0  0  0  0  0  0  0  0  0  0  0  0
   10.1090   38.2725   32.6631 H   0  0  0  0  0  0  0  0  0  0  0  0
   13.6761   37.4545   31.2279 H   0  0  0  0  0  0  0  0  0  0  0  0
    9.0025   37.3834   30.9378 H   0  0  0  0  0  0  0  0  0  0  0  0
   11.2835   36.3068   32.4949 H   0  0  0  0  0  0  0  0  0  0  0  0
   11.8778   36.9562   29.7584 H   0  0  0  0  0  0  0  0  0  0  0  0
   12.3298   38.3549   34.7446 H   0  0  0  0  0  0  0  0  0  0  0  0
   16.7541   34.1771   32.4621 H   0  0  0  0  0  0  0  0  0  0  0  0
   15.3503   35.7350   37.5113 H   0  0  0  0  0  0  0  0  0  0  0  0
   16.6328   34.5285   37.1423 H   0  0  0  0  0  0  0  0  0  0  0  0
  1  2  2  0
  1  3  1  0
  3  4  1  0
  4  5  1  0
  6  1  1  0
  7  6  1  0
  6  8  1  0
  8  9  1  0
  9 10  2  0
 11  9  1  0
 10 12  1  0
 13 11  2  0
 12 14  2  0
 14 13  1  0
 14 15  1  0
 15 16  1  0
 16 17  1  0
 16 18  1  0
 18 19  2  0
 20 18  1  0
 19 21  1  0
 22 20  2  0
 20 23  1  0
 21 24  1  0
 21 25  2  0
 25 22  1  0
 23 26  1  0
 23 27  2  0
 24 28  1  0
 25 29  1  0
 28 29  1  0
  4 30  2  0
  4 31  1  0
 32 31  1  0
 32 33  1  0
 33 34  1  0
 33 35  1  0
 34 36  1  0
 35 37  1  0
 35 38  1  0
 38 36  1  0
 36 39  1  0
 38 40  1  0
 41 39  1  0
 42 39  1  0
 43 41  2  0
 41 44  1  0
 45 42  2  0
 46 43  1  0
 44 47  2  0
 44 45  1  0
 48 46  2  0
 48 47  1  0
 47 49  1  0
  6 50  1  1
  7 51  1  0
  7 52  1  0
  8 53  1  0
  8 54  1  0
 10 55  1  0
 11 56  1  0
 12 57  1  0
 13 58  1  0
 16 59  1  6
 17 60  1  0
 17 61  1  0
 17 62  1  0
 19 63  1  0
 22 64  1  0
 28 65  1  0
 28 66  1  0
 32 67  1  0
 32 68  1  0
 33 69  1  0
 35 70  1  0
 36 71  1  0
 37 72  1  0
 38 73  1  0
 40 74  1  0
 42 75  1  0
 46 76  1  0
 49 77  1  0
 49 78  1  0
M  CHG  3   5  -1  23   1  26  -1
M  END
>  <EmbedRMS>  (180) 
0.08182991302

$$$$

     RDKit          3D

 78 83  0  0  0  0  0  0  0  0999 V2000
   10.2802   43.7665   33.8246 C   0  0  0  0  0  0  0  0  0  0  0  0
   11.4109   43.5920   34.3664 O   0  0  0  0  0  0  0  0  0  0  0  0
    9.3615   42.7251   33.7346 O   0  0  0  0  0  0  0  0  0  0  0  0
    9.8895   41.2270   34.2945 P   0  0  0  0  0  0  0  0  0  0  0  0
   10.3731   41.4569   35.8837 O   0  0  0  0  0  0  0  0  0  0  0  0
    9.9458   45.0737   33.2106 C   0  0  1  0  0  0  0  0  0  0  0  0
   11.0266   46.0292   33.4702 N   0  0  0  0  0  0  0  0  0  0  0  0
    9.7533   44.8541   31.6942 C   0  0  0  0  0  0  0  0  0  0  0  0
    8.7952   45.8413   31.0841 C   0  0  0  0  0  0  0  0  0  0  0  0
    7.4069   45.6010   31.1021 C   0  0  0  0  0  0  0  0  0  0  0  0
    9.2832   46.9899   30.4404 C   0  0  0  0  0  0  0  0  0  0  0  0
    6.5255   46.5024   30.4883 C   0  0  0  0  0  0  0  0  0  0  0  0
    8.4006   47.8907   29.8331 C   0  0  0  0  0  0  0  0  0  0  0  0
    7.0206   47.6444   29.8441 C   0  0  0  0  0  0  0  0  0  0  0  0
    6.1409   48.5497   29.2454 O   0  0  0  0  0  0  0  0  0  0  0  0
    5.7820   48.5196   27.8603 C   0  0  2  0  0  0  0  0  0  0  0  0
    4.8075   47.3754   27.5601 C   0  0  0  0  0  0  0  0  0  0  0  0
    7.0108   48.5938   26.9548 C   0  0  0  0  0  0  0  0  0  0  0  0
    7.4563   49.8870   26.5820 C   0  0  0  0  0  0  0  0  0  0  0  0
    7.7845   47.4541   26.5424 C   0  0  0  0  0  0  0  0  0  0  0  0
    8.6152   50.0051   25.8260 C   0  0  0  0  0  0  0  0  0  0  0  0
    8.9561   47.6349   25.7771 C   0  0  0  0  0  0  0  0  0  0  0  0
    7.4009   46.1176   26.8674 N   0  0  0  0  0  0  0  0  0  0  0  0
    9.2228   51.1549   25.3593 O   0  0  0  0  0  0  0  0  0  0  0  0
    9.3339   48.9266   25.4412 C   0  0  0  0  0  0  0  0  0  0  0  0
    6.6125   45.4230   25.9802 O   0  0  0  0  0  0  0  0  0  0  0  0
    8.0702   45.4780   27.7036 O   0  0  0  0  0  0  0  0  0  0  0  0
   10.3980   50.7705   24.6327 C   0  0  0  0  0  0  0  0  0  0  0  0
   10.4311   49.3388   24.7099 O   0  0  0  0  0  0  0  0  0  0  0  0
    8.8122   40.1844   34.2135 O   0  0  0  0  0  0  0  0  0  0  0  0
   11.2401   40.7950   33.3698 O   0  0  0  0  0  0  0  0  0  0  0  0
   10.9143   40.6914   31.9980 C   0  0  0  0  0  0  0  0  0  0  0  0
   11.5269   39.3912   31.4385 C   0  0  0  0  0  0  0  0  0  0  0  0
   12.7519   39.0911   32.0837 O   0  0  0  0  0  0  0  0  0  0  0  0
   10.6113   38.1932   31.6451 C   0  0  0  0  0  0  0  0  0  0  0  0
   12.9413   37.6838   32.0297 C   0  0  0  0  0  0  0  0  0  0  0  0
    9.6064   38.0878   30.6599 O   0  0  0  0  0  0  0  0  0  0  0  0
   11.5822   37.0198   31.6877 C   0  0  0  0  0  0  0  0  0  0  0  0
   13.4840   37.2105   33.3254 N   0  0  0  0  0  0  0  0  0  0  0  0
   11.6179   36.3072   30.4690 O   0  0  0  0  0  0  0  0  0  0  0  0
   14.4796   36.3309   33.5738 C   0  0  0  0  0  0  0  0  0  0  0  0
   13.1137   37.6269   34.5702 C   0  0  0  0  0  0  0  0  0  0  0  0
   15.2074   35.6152   32.6747 N   0  0  0  0  0  0  0  0  0  0  0  0
   14.6756   36.2298   34.9190 C   0  0  0  0  0  0  0  0  0  0  0  0
   13.8217   37.0446   35.5793 N   0  0  0  0  0  0  0  0  0  0  0  0
   16.1643   34.7603   33.1551 C   0  0  0  0  0  0  0  0  0  0  0  0
   15.6528   35.3503   35.4136 C   0  0  0  0  0  0  0  0  0  0  0  0
   16.3798   34.6316   34.5046 N   0  0  0  0  0  0  0  0  0  0  0  0
   15.9004   35.1930   36.8094 N   0  0  0  0  0  0  0  0  0  0  0  0
    8.9995   45.4383   33.6717 H   0  0  0  0  0  0  0  0  0  0  0  0
   11.0501   46.2279   34.4975 H   0  0  0  0  0  0  0  0  0  0  0  0
   10.7765   46.9368   33.0150 H   0  0  0  0  0  0  0  0  0  0  0  0
   10.7402   44.9075   31.1825 H   0  0  0  0  0  0  0  0  0  0  0  0
    9.3632   43.8356   31.4707 H   0  0  0  0  0  0  0  0  0  0  0  0
    7.0114   44.7181   31.5889 H   0  0  0  0  0  0  0  0  0  0  0  0
   10.3470   47.1904   30.4076 H   0  0  0  0  0  0  0  0  0  0  0  0
    5.4602   46.3128   30.5135 H   0  0  0  0  0  0  0  0  0  0  0  0
    8.7893   48.7765   29.3472 H   0  0  0  0  0  0  0  0  0  0  0  0
    5.1852   49.4411   27.6794 H   0  0  0  0  0  0  0  0  0  0  0  0
    5.1685   46.4111   27.9671 H   0  0  0  0  0  0  0  0  0  0  0  0
    3.8305   47.5864   28.0448 H   0  0  0  0  0  0  0  0  0  0  0  0
    4.6389   47.2875   26.4658 H   0  0  0  0  0  0  0  0  0  0  0  0
    6.9241   50.7797   26.8862 H   0  0  0  0  0  0  0  0  0  0  0  0
    9.5501   46.7892   25.4547 H   0  0  0  0  0  0  0  0  0  0  0  0
   11.3029   51.2010   25.1105 H   0  0  0  0  0  0  0  0  0  0  0  0
   10.3186   51.0954   23.5741 H   0  0  0  0  0  0  0  0  0  0  0  0
   11.3775   41.5548   31.4741 H   0  0  0  0  0  0  0  0  0  0  0  0
    9.8233   40.7201   31.7651 H   0  0  0  0  0  0  0  0  0  0  0  0
   11.7312   39.5361   30.3532 H   0  0  0  0  0  0  0  0  0  0  0  0
   10.1203   38.2697   32.6410 H   0  0  0  0  0  0  0  0  0  0  0  0
   13.6850   37.4639   31.2321 H   0  0  0  0  0  0  0  0  0  0  0  0
   10.0250   38.1792   29.7654 H   0  0  0  0  0  0  0  0  0  0  0  0
   11.2757   36.3135   32.4907 H   0  0  0  0  0  0  0  0  0  0  0  0
   11.9838   36.9111   29.7708 H   0  0  0  0  0  0  0  0  0  0  0  0
   12.3307   38.3537   34.7458 H   0  0  0  0  0  0  0  0  0  0  0  0
   16.7565   34.1786   32.4623 H   0  0  0  0  0  0  0  0  0  0  0  0
   16.6353   34.5301   37.1418 H   0  0  0  0  0  0  0  0  0  0  0  0
   15.3535   35.7355   37.5144 H   0  0  0  0  0  0  0  0  0  0  0  0
  1  2  2  0
  1  3  1  0
  3  4  1  0
  4  5  1  0
  6  1  1  0
  7  6  1  0
  6  8  1  0
  8  9  1  0
  9 10  2  0
 11  9  1  0
 10 12  1  0
 13 11  2  0
 12 14  2  0
 14 13  1  0
 14 15  1  0
 15 16  1  0
 16 17  1  0
 16 18  1  0
 18 19  2  0
 20 18  1  0
 19 21  1  0
 22 20  2  0
 20 23  1  0
 21 24  1  0
 21 25  2  0
 25 22  1  0
 23 26  1  0
 23 27  2  0
 24 28  1  0
 25 29  1  0
 28 29  1  0
  4 30  2  0
  4 31  1  0
 32 31  1  0
 32 33  1  0
 33 34  1  0
 33 35  1  0
 34 36  1  0
 35 37  1  0
 35 38  1  0
 38 36  1  0
 36 39  1  0
 38 40  1  0
 41 39  1  0
 42 39  1  0
 43 41  2  0
 41 44  1  0
 45 42  2  0
 46 43  1  0
 44 47  2  0
 44 45  1  0
 48 46  2  0
 48 47  1  0
 47 49  1  0
  6 50  1  1
  7 51  1  0
  7 52  1  0
  8 53  1  0
  8 54  1  0
 10 55  1  0
 11 56  1  0
 12 57  1  0
 13 58  1  0
 16 59  1  6
 17 60  1  0
 17 61  1  0
 17 62  1  0
 19 63  1  0
 22 64  1  0
 28 65  1  0
 28 66  1  0
 32 67  1  0
 32 68  1  0
 33 69  1  0
 35 70  1  0
 36 71  1  0
 37 72  1  0
 38 73  1  0
 40 74  1  0
 42 75  1  0
 46 76  1  0
 49 77  1  0
 49 78  1  0
M  CHG  3   5  -1  23   1  26  -1
M  END
>  <EmbedRMS>  (181) 
0.0807687099316

$$$$

     RDKit          3D

 78 83  0  0  0  0  0  0  0  0999 V2000
   10.2831   43.7665   33.8256 C   0  0  0  0  0  0  0  0  0  0  0  0
   11.4099   43.5934   34.3751 O   0  0  0  0  0  0  0  0  0  0  0  0
    9.3636   42.7256   33.7347 O   0  0  0  0  0  0  0  0  0  0  0  0
    9.8906   41.2267   34.2933 P   0  0  0  0  0  0  0  0  0  0  0  0
   10.3743   41.4558   35.8827 O   0  0  0  0  0  0  0  0  0  0  0  0
    9.9540   45.0699   33.2036 C   0  0  1  0  0  0  0  0  0  0  0  0
   11.0264   46.0329   33.4760 N   0  0  0  0  0  0  0  0  0  0  0  0
    9.7466   44.8487   31.6876 C   0  0  0  0  0  0  0  0  0  0  0  0
    8.7922   45.8412   31.0843 C   0  0  0  0  0  0  0  0  0  0  0  0
    7.4045   45.5997   31.0976 C   0  0  0  0  0  0  0  0  0  0  0  0
    9.2826   46.9879   30.4391 C   0  0  0  0  0  0  0  0  0  0  0  0
    6.5251   46.5005   30.4818 C   0  0  0  0  0  0  0  0  0  0  0  0
    8.4015   47.8881   29.8281 C   0  0  0  0  0  0  0  0  0  0  0  0
    7.0205   47.6555   29.8580 C   0  0  0  0  0  0  0  0  0  0  0  0
    6.1483   48.5591   29.2458 O   0  0  0  0  0  0  0  0  0  0  0  0
    5.4250   49.5706   29.9543 C   0  0  2  0  0  0  0  0  0  0  0  0
    6.3526   50.7113   30.3919 C   0  0  0  0  0  0  0  0  0  0  0  0
    4.5358   48.9705   31.0426 C   0  0  0  0  0  0  0  0  0  0  0  0
    3.2921   48.4388   30.6189 C   0  0  0  0  0  0  0  0  0  0  0  0
    4.8816   48.8870   32.4367 C   0  0  0  0  0  0  0  0  0  0  0  0
    2.4427   47.8819   31.5656 C   0  0  0  0  0  0  0  0  0  0  0  0
    3.9729   48.3190   33.3554 C   0  0  0  0  0  0  0  0  0  0  0  0
    6.1354   49.3503   32.9410 N   0  0  0  0  0  0  0  0  0  0  0  0
    1.1966   47.3164   31.3747 O   0  0  0  0  0  0  0  0  0  0  0  0
    2.7673   47.8274   32.8766 C   0  0  0  0  0  0  0  0  0  0  0  0
    7.2475   48.5516   32.8194 O   0  0  0  0  0  0  0  0  0  0  0  0
    6.1554   50.2941   33.7571 O   0  0  0  0  0  0  0  0  0  0  0  0
    0.7090   46.8797   32.6508 C   0  0  0  0  0  0  0  0  0  0  0  0
    1.7433   47.2254   33.5821 O   0  0  0  0  0  0  0  0  0  0  0  0
    8.8123   40.1852   34.2126 O   0  0  0  0  0  0  0  0  0  0  0  0
   11.2406   40.7946   33.3670 O   0  0  0  0  0  0  0  0  0  0  0  0
   10.9134   40.6866   31.9954 C   0  0  0  0  0  0  0  0  0  0  0  0
   11.5166   39.3787   31.4404 C   0  0  0  0  0  0  0  0  0  0  0  0
   12.7485   39.0849   32.0735 O   0  0  0  0  0  0  0  0  0  0  0  0
   10.6039   38.1884   31.6669 C   0  0  0  0  0  0  0  0  0  0  0  0
   12.9329   37.6776   32.0284 C   0  0  0  0  0  0  0  0  0  0  0  0
    9.6374   38.0938   30.6484 O   0  0  0  0  0  0  0  0  0  0  0  0
   11.5737   37.0141   31.7055 C   0  0  0  0  0  0  0  0  0  0  0  0
   13.4853   37.2120   33.3238 N   0  0  0  0  0  0  0  0  0  0  0  0
   11.6210   36.3379   30.4683 O   0  0  0  0  0  0  0  0  0  0  0  0
   14.4804   36.3319   33.5726 C   0  0  0  0  0  0  0  0  0  0  0  0
   13.1141   37.6275   34.5689 C   0  0  0  0  0  0  0  0  0  0  0  0
   15.2076   35.6152   32.6740 N   0  0  0  0  0  0  0  0  0  0  0  0
   14.6761   36.2306   34.9181 C   0  0  0  0  0  0  0  0  0  0  0  0
   13.8218   37.0451   35.5783 N   0  0  0  0  0  0  0  0  0  0  0  0
   16.1642   34.7600   33.1548 C   0  0  0  0  0  0  0  0  0  0  0  0
   15.6528   35.3507   35.4131 C   0  0  0  0  0  0  0  0  0  0  0  0
   16.3796   34.6315   34.5043 N   0  0  0  0  0  0  0  0  0  0  0  0
   15.9000   35.1933   36.8090 N   0  0  0  0  0  0  0  0  0  0  0  0
    9.0111   45.4321   33.6710 H   0  0  0  0  0  0  0  0  0  0  0  0
   10.7242   46.9695   33.1223 H   0  0  0  0  0  0  0  0  0  0  0  0
   11.8896   45.7673   32.9470 H   0  0  0  0  0  0  0  0  0  0  0  0
    9.3419   43.8335   31.4759 H   0  0  0  0  0  0  0  0  0  0  0  0
   10.7231   44.8827   31.1559 H   0  0  0  0  0  0  0  0  0  0  0  0
    7.0079   44.7132   31.5769 H   0  0  0  0  0  0  0  0  0  0  0  0
   10.3471   47.1848   30.4055 H   0  0  0  0  0  0  0  0  0  0  0  0
    5.4618   46.2996   30.4908 H   0  0  0  0  0  0  0  0  0  0  0  0
    8.7910   48.7697   29.3353 H   0  0  0  0  0  0  0  0  0  0  0  0
    4.7437   50.0447   29.2130 H   0  0  0  0  0  0  0  0  0  0  0  0
    5.8090   51.4250   31.0469 H   0  0  0  0  0  0  0  0  0  0  0  0
    6.7039   51.2647   29.4951 H   0  0  0  0  0  0  0  0  0  0  0  0
    7.2544   50.3321   30.9104 H   0  0  0  0  0  0  0  0  0  0  0  0
    2.9945   48.4585   29.5778 H   0  0  0  0  0  0  0  0  0  0  0  0
    4.2117   48.2495   34.4090 H   0  0  0  0  0  0  0  0  0  0  0  0
    0.5497   45.7811   32.6456 H   0  0  0  0  0  0  0  0  0  0  0  0
   -0.2305   47.4133   32.9060 H   0  0  0  0  0  0  0  0  0  0  0  0
   11.3827   41.5438   31.4668 H   0  0  0  0  0  0  0  0  0  0  0  0
    9.8225   40.7225   31.7631 H   0  0  0  0  0  0  0  0  0  0  0  0
   11.6979   39.5037   30.3478 H   0  0  0  0  0  0  0  0  0  0  0  0
   10.1083   38.2787   32.6626 H   0  0  0  0  0  0  0  0  0  0  0  0
   13.6638   37.4473   31.2214 H   0  0  0  0  0  0  0  0  0  0  0  0
    8.9763   37.4191   30.9532 H   0  0  0  0  0  0  0  0  0  0  0  0
   11.2821   36.3054   32.5172 H   0  0  0  0  0  0  0  0  0  0  0  0
   10.8658   35.6936   30.4652 H   0  0  0  0  0  0  0  0  0  0  0  0
   12.3293   38.3523   34.7445 H   0  0  0  0  0  0  0  0  0  0  0  0
   16.7561   34.1778   32.4621 H   0  0  0  0  0  0  0  0  0  0  0  0
   16.6345   34.5300   37.1416 H   0  0  0  0  0  0  0  0  0  0  0  0
   15.3533   35.7361   37.5139 H   0  0  0  0  0  0  0  0  0  0  0  0
  1  2  2  0
  1  3  1  0
  3  4  1  0
  4  5  1  0
  6  1  1  0
  7  6  1  0
  6  8  1  0
  8  9  1  0
  9 10  2  0
 11  9  1  0
 10 12  1  0
 13 11  2  0
 12 14  2  0
 14 13  1  0
 14 15  1  0
 15 16  1  0
 16 17  1  0
 16 18  1  0
 18 19  2  0
 20 18  1  0
 19 21  1  0
 22 20  2  0
 20 23  1  0
 21 24  1  0
 21 25  2  0
 25 22  1  0
 23 26  1  0
 23 27  2  0
 24 28  1  0
 25 29  1  0
 28 29  1  0
  4 30  2  0
  4 31  1  0
 32 31  1  0
 32 33  1  0
 33 34  1  0
 33 35  1  0
 34 36  1  0
 35 37  1  0
 35 38  1  0
 38 36  1  0
 36 39  1  0
 38 40  1  0
 41 39  1  0
 42 39  1  0
 43 41  2  0
 41 44  1  0
 45 42  2  0
 46 43  1  0
 44 47  2  0
 44 45  1  0
 48 46  2  0
 48 47  1  0
 47 49  1  0
  6 50  1  1
  7 51  1  0
  7 52  1  0
  8 53  1  0
  8 54  1  0
 10 55  1  0
 11 56  1  0
 12 57  1  0
 13 58  1  0
 16 59  1  6
 17 60  1  0
 17 61  1  0
 17 62  1  0
 19 63  1  0
 22 64  1  0
 28 65  1  0
 28 66  1  0
 32 67  1  0
 32 68  1  0
 33 69  1  0
 35 70  1  0
 36 71  1  0
 37 72  1  0
 38 73  1  0
 40 74  1  0
 42 75  1  0
 46 76  1  0
 49 77  1  0
 49 78  1  0
M  CHG  3   5  -1  23   1  26  -1
M  END
>  <EmbedRMS>  (182) 
0.0826732744192

$$$$

     RDKit          3D

 78 83  0  0  0  0  0  0  0  0999 V2000
   10.2801   43.7667   33.8250 C   0  0  0  0  0  0  0  0  0  0  0  0
   11.4109   43.5921   34.3665 O   0  0  0  0  0  0  0  0  0  0  0  0
    9.3617   42.7251   33.7344 O   0  0  0  0  0  0  0  0  0  0  0  0
    9.8901   41.2266   34.2931 P   0  0  0  0  0  0  0  0  0  0  0  0
   10.3743   41.4563   35.8823 O   0  0  0  0  0  0  0  0  0  0  0  0
    9.9454   45.0740   33.2114 C   0  0  1  0  0  0  0  0  0  0  0  0
   11.0260   46.0296   33.4710 N   0  0  0  0  0  0  0  0  0  0  0  0
    9.7533   44.8546   31.6952 C   0  0  0  0  0  0  0  0  0  0  0  0
    8.7952   45.8420   31.0854 C   0  0  0  0  0  0  0  0  0  0  0  0
    7.4077   45.5991   31.0994 C   0  0  0  0  0  0  0  0  0  0  0  0
    9.2832   46.9877   30.4367 C   0  0  0  0  0  0  0  0  0  0  0  0
    6.5273   46.4981   30.4816 C   0  0  0  0  0  0  0  0  0  0  0  0
    8.4011   47.8872   29.8262 C   0  0  0  0  0  0  0  0  0  0  0  0
    7.0187   47.6538   29.8591 C   0  0  0  0  0  0  0  0  0  0  0  0
    6.1242   48.5472   29.2611 O   0  0  0  0  0  0  0  0  0  0  0  0
    5.7123   49.7980   29.8301 C   0  0  2  0  0  0  0  0  0  0  0  0
    6.8680   50.8012   29.9222 C   0  0  0  0  0  0  0  0  0  0  0  0
    5.0089   49.6013   31.1708 C   0  0  0  0  0  0  0  0  0  0  0  0
    5.7576   49.1464   32.2876 C   0  0  0  0  0  0  0  0  0  0  0  0
    3.5940   49.7968   31.3207 C   0  0  0  0  0  0  0  0  0  0  0  0
    5.0881   48.8646   33.4704 C   0  0  0  0  0  0  0  0  0  0  0  0
    2.9655   49.4792   32.5451 C   0  0  0  0  0  0  0  0  0  0  0  0
    2.7871   50.3271   30.2607 N   0  0  0  0  0  0  0  0  0  0  0  0
    5.6101   48.3989   34.6618 O   0  0  0  0  0  0  0  0  0  0  0  0
    3.7506   49.0182   33.5922 C   0  0  0  0  0  0  0  0  0  0  0  0
    1.5562   49.7702   30.0020 O   0  0  0  0  0  0  0  0  0  0  0  0
    3.0543   51.4476   29.7798 O   0  0  0  0  0  0  0  0  0  0  0  0
    4.5279   48.2520   35.5911 C   0  0  0  0  0  0  0  0  0  0  0  0
    3.3585   48.6590   34.8674 O   0  0  0  0  0  0  0  0  0  0  0  0
    8.8123   40.1845   34.2130 O   0  0  0  0  0  0  0  0  0  0  0  0
   11.2401   40.7950   33.3666 O   0  0  0  0  0  0  0  0  0  0  0  0
   10.9124   40.6859   31.9952 C   0  0  0  0  0  0  0  0  0  0  0  0
   11.5175   39.3787   31.4405 C   0  0  0  0  0  0  0  0  0  0  0  0
   12.7490   39.0864   32.0753 O   0  0  0  0  0  0  0  0  0  0  0  0
   10.6060   38.1868   31.6656 C   0  0  0  0  0  0  0  0  0  0  0  0
   12.9355   37.6796   32.0292 C   0  0  0  0  0  0  0  0  0  0  0  0
    9.6399   38.0903   30.6471 O   0  0  0  0  0  0  0  0  0  0  0  0
   11.5765   37.0145   31.7044 C   0  0  0  0  0  0  0  0  0  0  0  0
   13.4858   37.2125   33.3244 N   0  0  0  0  0  0  0  0  0  0  0  0
   11.6101   36.3397   30.4673 O   0  0  0  0  0  0  0  0  0  0  0  0
   14.4805   36.3319   33.5729 C   0  0  0  0  0  0  0  0  0  0  0  0
   13.1143   37.6276   34.5694 C   0  0  0  0  0  0  0  0  0  0  0  0
   15.2076   35.6153   32.6741 N   0  0  0  0  0  0  0  0  0  0  0  0
   14.6760   36.2304   34.9184 C   0  0  0  0  0  0  0  0  0  0  0  0
   13.8219   37.0449   35.5786 N   0  0  0  0  0  0  0  0  0  0  0  0
   16.1641   34.7600   33.1548 C   0  0  0  0  0  0  0  0  0  0  0  0
   15.6528   35.3505   35.4132 C   0  0  0  0  0  0  0  0  0  0  0  0
   16.3795   34.6314   34.5043 N   0  0  0  0  0  0  0  0  0  0  0  0
   15.9002   35.1932   36.8091 N   0  0  0  0  0  0  0  0  0  0  0  0
    8.9989   45.4385   33.6725 H   0  0  0  0  0  0  0  0  0  0  0  0
   10.7756   46.9373   33.0159 H   0  0  0  0  0  0  0  0  0  0  0  0
   11.0494   46.2283   34.4983 H   0  0  0  0  0  0  0  0  0  0  0  0
    9.3634   43.8360   31.4715 H   0  0  0  0  0  0  0  0  0  0  0  0
   10.7404   44.9081   31.1839 H   0  0  0  0  0  0  0  0  0  0  0  0
    7.0123   44.7146   31.5832 H   0  0  0  0  0  0  0  0  0  0  0  0
   10.3476   47.1834   30.3965 H   0  0  0  0  0  0  0  0  0  0  0  0
    5.4621   46.3059   30.5014 H   0  0  0  0  0  0  0  0  0  0  0  0
    8.7959   48.7562   29.3172 H   0  0  0  0  0  0  0  0  0  0  0  0
    5.0094   50.2288   29.0939 H   0  0  0  0  0  0  0  0  0  0  0  0
    7.3410   50.9206   28.9245 H   0  0  0  0  0  0  0  0  0  0  0  0
    7.6425   50.4740   30.6446 H   0  0  0  0  0  0  0  0  0  0  0  0
    6.4813   51.7906   30.2472 H   0  0  0  0  0  0  0  0  0  0  0  0
    6.8263   48.9911   32.2373 H   0  0  0  0  0  0  0  0  0  0  0  0
    1.8997   49.6110   32.6809 H   0  0  0  0  0  0  0  0  0  0  0  0
    4.6839   48.9122   36.4699 H   0  0  0  0  0  0  0  0  0  0  0  0
    4.4337   47.1916   35.9063 H   0  0  0  0  0  0  0  0  0  0  0  0
    9.8214   40.7199   31.7634 H   0  0  0  0  0  0  0  0  0  0  0  0
   11.3802   41.5436   31.4660 H   0  0  0  0  0  0  0  0  0  0  0  0
   11.6999   39.5041   30.3482 H   0  0  0  0  0  0  0  0  0  0  0  0
   10.1085   38.2767   32.6603 H   0  0  0  0  0  0  0  0  0  0  0  0
   13.6680   37.4521   31.2229 H   0  0  0  0  0  0  0  0  0  0  0  0
    9.0016   37.3868   30.9349 H   0  0  0  0  0  0  0  0  0  0  0  0
   11.2666   36.3062   32.5084 H   0  0  0  0  0  0  0  0  0  0  0  0
   12.1390   35.5126   30.6150 H   0  0  0  0  0  0  0  0  0  0  0  0
   12.3300   38.3529   34.7449 H   0  0  0  0  0  0  0  0  0  0  0  0
   16.7560   34.1779   32.4620 H   0  0  0  0  0  0  0  0  0  0  0  0
   16.6347   34.5299   37.1416 H   0  0  0  0  0  0  0  0  0  0  0  0
   15.3534   35.7359   37.5139 H   0  0  0  0  0  0  0  0  0  0  0  0
  1  2  2  0
  1  3  1  0
  3  4  1  0
  4  5  1  0
  6  1  1  0
  7  6  1  0
  6  8  1  0
  8  9  1  0
  9 10  2  0
 11  9  1  0
 10 12  1  0
 13 11  2  0
 12 14  2  0
 14 13  1  0
 14 15  1  0
 15 16  1  0
 16 17  1  0
 16 18  1  0
 18 19  2  0
 20 18  1  0
 19 21  1  0
 22 20  2  0
 20 23  1  0
 21 24  1  0
 21 25  2  0
 25 22  1  0
 23 26  1  0
 23 27  2  0
 24 28  1  0
 25 29  1  0
 28 29  1  0
  4 30  2  0
  4 31  1  0
 32 31  1  0
 32 33  1  0
 33 34  1  0
 33 35  1  0
 34 36  1  0
 35 37  1  0
 35 38  1  0
 38 36  1  0
 36 39  1  0
 38 40  1  0
 41 39  1  0
 42 39  1  0
 43 41  2  0
 41 44  1  0
 45 42  2  0
 46 43  1  0
 44 47  2  0
 44 45  1  0
 48 46  2  0
 48 47  1  0
 47 49  1  0
  6 50  1  1
  7 51  1  0
  7 52  1  0
  8 53  1  0
  8 54  1  0
 10 55  1  0
 11 56  1  0
 12 57  1  0
 13 58  1  0
 16 59  1  6
 17 60  1  0
 17 61  1  0
 17 62  1  0
 19 63  1  0
 22 64  1  0
 28 65  1  0
 28 66  1  0
 32 67  1  0
 32 68  1  0
 33 69  1  0
 35 70  1  0
 36 71  1  0
 37 72  1  0
 38 73  1  0
 40 74  1  0
 42 75  1  0
 46 76  1  0
 49 77  1  0
 49 78  1  0
M  CHG  3   5  -1  23   1  26  -1
M  END
>  <EmbedRMS>  (183) 
0.0823285390668

$$$$

     RDKit          3D

 78 83  0  0  0  0  0  0  0  0999 V2000
   10.2835   43.7661   33.8252 C   0  0  0  0  0  0  0  0  0  0  0  0
   11.4101   43.5932   34.3751 O   0  0  0  0  0  0  0  0  0  0  0  0
    9.3640   42.7253   33.7344 O   0  0  0  0  0  0  0  0  0  0  0  0
    9.8907   41.2265   34.2938 P   0  0  0  0  0  0  0  0  0  0  0  0
   10.3732   41.4560   35.8835 O   0  0  0  0  0  0  0  0  0  0  0  0
    9.9546   45.0694   33.2030 C   0  0  1  0  0  0  0  0  0  0  0  0
   11.0272   46.0321   33.4752 N   0  0  0  0  0  0  0  0  0  0  0  0
    9.7464   44.8483   31.6869 C   0  0  0  0  0  0  0  0  0  0  0  0
    8.7921   45.8410   31.0838 C   0  0  0  0  0  0  0  0  0  0  0  0
    7.4038   45.6020   31.1005 C   0  0  0  0  0  0  0  0  0  0  0  0
    9.2826   46.9899   30.4428 C   0  0  0  0  0  0  0  0  0  0  0  0
    6.5241   46.5046   30.4868 C   0  0  0  0  0  0  0  0  0  0  0  0
    8.4014   47.8915   29.8344 C   0  0  0  0  0  0  0  0  0  0  0  0
    7.0211   47.6462   29.8435 C   0  0  0  0  0  0  0  0  0  0  0  0
    6.1429   48.5524   29.2440 O   0  0  0  0  0  0  0  0  0  0  0  0
    5.7851   48.5225   27.8585 C   0  0  2  0  0  0  0  0  0  0  0  0
    4.8094   47.3797   27.5578 C   0  0  0  0  0  0  0  0  0  0  0  0
    7.0149   48.5948   26.9541 C   0  0  0  0  0  0  0  0  0  0  0  0
    7.4625   49.8873   26.5816 C   0  0  0  0  0  0  0  0  0  0  0  0
    7.7872   47.4539   26.5424 C   0  0  0  0  0  0  0  0  0  0  0  0
    8.6222   50.0036   25.8263 C   0  0  0  0  0  0  0  0  0  0  0  0
    8.9595   47.6329   25.7780 C   0  0  0  0  0  0  0  0  0  0  0  0
    7.4015   46.1180   26.8674 N   0  0  0  0  0  0  0  0  0  0  0  0
    9.2317   51.1525   25.3599 O   0  0  0  0  0  0  0  0  0  0  0  0
    9.3394   48.9240   25.4421 C   0  0  0  0  0  0  0  0  0  0  0  0
    6.6130   45.4242   25.9796 O   0  0  0  0  0  0  0  0  0  0  0  0
    8.0691   45.4778   27.7046 O   0  0  0  0  0  0  0  0  0  0  0  0
   10.4069   50.7662   24.6342 C   0  0  0  0  0  0  0  0  0  0  0  0
   10.4378   49.3345   24.7115 O   0  0  0  0  0  0  0  0  0  0  0  0
    8.8127   40.1848   34.2121 O   0  0  0  0  0  0  0  0  0  0  0  0
   11.2420   40.7941   33.3697 O   0  0  0  0  0  0  0  0  0  0  0  0
   10.9187   40.6911   31.9971 C   0  0  0  0  0  0  0  0  0  0  0  0
   11.5172   39.3815   31.4407 C   0  0  0  0  0  0  0  0  0  0  0  0
   12.7493   39.0856   32.0728 O   0  0  0  0  0  0  0  0  0  0  0  0
   10.6023   38.1908   31.6665 C   0  0  0  0  0  0  0  0  0  0  0  0
   12.9319   37.6781   32.0281 C   0  0  0  0  0  0  0  0  0  0  0  0
    9.6392   38.0798   30.6452 O   0  0  0  0  0  0  0  0  0  0  0  0
   11.5715   37.0166   31.7056 C   0  0  0  0  0  0  0  0  0  0  0  0
   13.4847   37.2121   33.3235 N   0  0  0  0  0  0  0  0  0  0  0  0
   11.6187   36.3384   30.4695 O   0  0  0  0  0  0  0  0  0  0  0  0
   14.4801   36.3321   33.5724 C   0  0  0  0  0  0  0  0  0  0  0  0
   13.1137   37.6276   34.5687 C   0  0  0  0  0  0  0  0  0  0  0  0
   15.2073   35.6153   32.6738 N   0  0  0  0  0  0  0  0  0  0  0  0
   14.6759   36.2308   34.9179 C   0  0  0  0  0  0  0  0  0  0  0  0
   13.8216   37.0452   35.5781 N   0  0  0  0  0  0  0  0  0  0  0  0
   16.1640   34.7602   33.1546 C   0  0  0  0  0  0  0  0  0  0  0  0
   15.6526   35.3508   35.4129 C   0  0  0  0  0  0  0  0  0  0  0  0
   16.3794   34.6317   34.5041 N   0  0  0  0  0  0  0  0  0  0  0  0
   15.8999   35.1935   36.8088 N   0  0  0  0  0  0  0  0  0  0  0  0
    9.0120   45.4316   33.6709 H   0  0  0  0  0  0  0  0  0  0  0  0
   11.8904   45.7660   32.9463 H   0  0  0  0  0  0  0  0  0  0  0  0
   10.7257   46.9688   33.1210 H   0  0  0  0  0  0  0  0  0  0  0  0
    9.3411   43.8333   31.4753 H   0  0  0  0  0  0  0  0  0  0  0  0
   10.7226   44.8820   31.1547 H   0  0  0  0  0  0  0  0  0  0  0  0
    7.0067   44.7186   31.5851 H   0  0  0  0  0  0  0  0  0  0  0  0
   10.3467   47.1889   30.4127 H   0  0  0  0  0  0  0  0  0  0  0  0
    5.4585   46.3160   30.5107 H   0  0  0  0  0  0  0  0  0  0  0  0
    8.7914   48.7773   29.3495 H   0  0  0  0  0  0  0  0  0  0  0  0
    5.1899   49.4448   27.6770 H   0  0  0  0  0  0  0  0  0  0  0  0
    3.8322   47.5921   28.0417 H   0  0  0  0  0  0  0  0  0  0  0  0
    4.6415   47.2918   26.4634 H   0  0  0  0  0  0  0  0  0  0  0  0
    5.1686   46.4149   27.9652 H   0  0  0  0  0  0  0  0  0  0  0  0
    6.9315   50.7808   26.8853 H   0  0  0  0  0  0  0  0  0  0  0  0
    9.5525   46.7863   25.4560 H   0  0  0  0  0  0  0  0  0  0  0  0
   11.3121   51.1954   25.1126 H   0  0  0  0  0  0  0  0  0  0  0  0
   10.3286   51.0912   23.5755 H   0  0  0  0  0  0  0  0  0  0  0  0
    9.8300   40.7411   31.7612 H   0  0  0  0  0  0  0  0  0  0  0  0
   11.3969   41.5460   31.4728 H   0  0  0  0  0  0  0  0  0  0  0  0
   11.6975   39.5067   30.3481 H   0  0  0  0  0  0  0  0  0  0  0  0
   10.1076   38.2648   32.6645 H   0  0  0  0  0  0  0  0  0  0  0  0
   13.6621   37.4467   31.2208 H   0  0  0  0  0  0  0  0  0  0  0  0
    8.8975   38.6945   30.8830 H   0  0  0  0  0  0  0  0  0  0  0  0
   11.2805   36.3074   32.5170 H   0  0  0  0  0  0  0  0  0  0  0  0
   10.8492   35.7111   30.4586 H   0  0  0  0  0  0  0  0  0  0  0  0
   12.3290   38.3524   34.7444 H   0  0  0  0  0  0  0  0  0  0  0  0
   16.7559   34.1780   32.4619 H   0  0  0  0  0  0  0  0  0  0  0  0
   16.6344   34.5301   37.1414 H   0  0  0  0  0  0  0  0  0  0  0  0
   15.3531   35.7362   37.5137 H   0  0  0  0  0  0  0  0  0  0  0  0
  1  2  2  0
  1  3  1  0
  3  4  1  0
  4  5  1  0
  6  1  1  0
  7  6  1  0
  6  8  1  0
  8  9  1  0
  9 10  2  0
 11  9  1  0
 10 12  1  0
 13 11  2  0
 12 14  2  0
 14 13  1  0
 14 15  1  0
 15 16  1  0
 16 17  1  0
 16 18  1  0
 18 19  2  0
 20 18  1  0
 19 21  1  0
 22 20  2  0
 20 23  1  0
 21 24  1  0
 21 25  2  0
 25 22  1  0
 23 26  1  0
 23 27  2  0
 24 28  1  0
 25 29  1  0
 28 29  1  0
  4 30  2  0
  4 31  1  0
 32 31  1  0
 32 33  1  0
 33 34  1  0
 33 35  1  0
 34 36  1  0
 35 37  1  0
 35 38  1  0
 38 36  1  0
 36 39  1  0
 38 40  1  0
 41 39  1  0
 42 39  1  0
 43 41  2  0
 41 44  1  0
 45 42  2  0
 46 43  1  0
 44 47  2  0
 44 45  1  0
 48 46  2  0
 48 47  1  0
 47 49  1  0
  6 50  1  1
  7 51  1  0
  7 52  1  0
  8 53  1  0
  8 54  1  0
 10 55  1  0
 11 56  1  0
 12 57  1  0
 13 58  1  0
 16 59  1  6
 17 60  1  0
 17 61  1  0
 17 62  1  0
 19 63  1  0
 22 64  1  0
 28 65  1  0
 28 66  1  0
 32 67  1  0
 32 68  1  0
 33 69  1  0
 35 70  1  0
 36 71  1  0
 37 72  1  0
 38 73  1  0
 40 74  1  0
 42 75  1  0
 46 76  1  0
 49 77  1  0
 49 78  1  0
M  CHG  3   5  -1  23   1  26  -1
M  END
>  <EmbedRMS>  (184) 
0.0830629966761

$$$$

     RDKit          3D

 78 83  0  0  0  0  0  0  0  0999 V2000
   10.2834   43.7662   33.8256 C   0  0  0  0  0  0  0  0  0  0  0  0
   11.4102   43.5930   34.3752 O   0  0  0  0  0  0  0  0  0  0  0  0
    9.3637   42.7255   33.7349 O   0  0  0  0  0  0  0  0  0  0  0  0
    9.8906   41.2266   34.2933 P   0  0  0  0  0  0  0  0  0  0  0  0
   10.3743   41.4556   35.8827 O   0  0  0  0  0  0  0  0  0  0  0  0
    9.9546   45.0695   33.2035 C   0  0  1  0  0  0  0  0  0  0  0  0
   11.0274   46.0321   33.4755 N   0  0  0  0  0  0  0  0  0  0  0  0
    9.7466   44.8480   31.6876 C   0  0  0  0  0  0  0  0  0  0  0  0
    8.7924   45.8407   31.0842 C   0  0  0  0  0  0  0  0  0  0  0  0
    7.4055   45.6018   31.0994 C   0  0  0  0  0  0  0  0  0  0  0  0
    9.2823   46.9879   30.4426 C   0  0  0  0  0  0  0  0  0  0  0  0
    6.5266   46.5036   30.4845 C   0  0  0  0  0  0  0  0  0  0  0  0
    8.4033   47.8904   29.8326 C   0  0  0  0  0  0  0  0  0  0  0  0
    7.0141   47.6520   29.8458 C   0  0  0  0  0  0  0  0  0  0  0  0
    6.0891   48.5193   29.2415 O   0  0  0  0  0  0  0  0  0  0  0  0
    6.4231   49.6800   28.4753 C   0  0  2  0  0  0  0  0  0  0  0  0
    5.1443   50.4656   28.1910 C   0  0  0  0  0  0  0  0  0  0  0  0
    7.0905   49.2837   27.1688 C   0  0  0  0  0  0  0  0  0  0  0  0
    6.5516   48.1971   26.4369 C   0  0  0  0  0  0  0  0  0  0  0  0
    8.2731   49.9369   26.6856 C   0  0  0  0  0  0  0  0  0  0  0  0
    7.2141   47.7747   25.2921 C   0  0  0  0  0  0  0  0  0  0  0  0
    8.9131   49.4512   25.5230 C   0  0  0  0  0  0  0  0  0  0  0  0
    8.8254   51.0877   27.3434 N   0  0  0  0  0  0  0  0  0  0  0  0
    6.8815   46.7392   24.4400 O   0  0  0  0  0  0  0  0  0  0  0  0
    8.3477   48.3715   24.8576 C   0  0  0  0  0  0  0  0  0  0  0  0
   10.1892   51.2653   27.3788 O   0  0  0  0  0  0  0  0  0  0  0  0
    8.0862   52.0377   27.6732 O   0  0  0  0  0  0  0  0  0  0  0  0
    7.8711   46.6845   23.4034 C   0  0  0  0  0  0  0  0  0  0  0  0
    8.7882   47.7442   23.7081 O   0  0  0  0  0  0  0  0  0  0  0  0
    8.8122   40.1851   34.2127 O   0  0  0  0  0  0  0  0  0  0  0  0
   11.2406   40.7945   33.3670 O   0  0  0  0  0  0  0  0  0  0  0  0
   10.9134   40.6866   31.9954 C   0  0  0  0  0  0  0  0  0  0  0  0
   11.5166   39.3787   31.4404 C   0  0  0  0  0  0  0  0  0  0  0  0
   12.7486   39.0849   32.0735 O   0  0  0  0  0  0  0  0  0  0  0  0
   10.6039   38.1884   31.6669 C   0  0  0  0  0  0  0  0  0  0  0  0
   12.9329   37.6776   32.0284 C   0  0  0  0  0  0  0  0  0  0  0  0
    9.6374   38.0938   30.6484 O   0  0  0  0  0  0  0  0  0  0  0  0
   11.5737   37.0140   31.7055 C   0  0  0  0  0  0  0  0  0  0  0  0
   13.4853   37.2120   33.3238 N   0  0  0  0  0  0  0  0  0  0  0  0
   11.6210   36.3379   30.4683 O   0  0  0  0  0  0  0  0  0  0  0  0
   14.4805   36.3319   33.5726 C   0  0  0  0  0  0  0  0  0  0  0  0
   13.1141   37.6275   34.5689 C   0  0  0  0  0  0  0  0  0  0  0  0
   15.2076   35.6152   32.6740 N   0  0  0  0  0  0  0  0  0  0  0  0
   14.6761   36.2307   34.9181 C   0  0  0  0  0  0  0  0  0  0  0  0
   13.8218   37.0451   35.5783 N   0  0  0  0  0  0  0  0  0  0  0  0
   16.1641   34.7599   33.1548 C   0  0  0  0  0  0  0  0  0  0  0  0
   15.6527   35.3507   35.4131 C   0  0  0  0  0  0  0  0  0  0  0  0
   16.3795   34.6315   34.5043 N   0  0  0  0  0  0  0  0  0  0  0  0
   15.9001   35.1934   36.8090 N   0  0  0  0  0  0  0  0  0  0  0  0
    9.0121   45.4318   33.6713 H   0  0  0  0  0  0  0  0  0  0  0  0
   10.7259   46.9687   33.1211 H   0  0  0  0  0  0  0  0  0  0  0  0
   11.8906   45.7658   32.9467 H   0  0  0  0  0  0  0  0  0  0  0  0
    9.3414   43.8328   31.4763 H   0  0  0  0  0  0  0  0  0  0  0  0
   10.7229   44.8813   31.1556 H   0  0  0  0  0  0  0  0  0  0  0  0
    7.0083   44.7171   31.5816 H   0  0  0  0  0  0  0  0  0  0  0  0
   10.3468   47.1855   30.4128 H   0  0  0  0  0  0  0  0  0  0  0  0
    5.4621   46.3068   30.5015 H   0  0  0  0  0  0  0  0  0  0  0  0
    8.8171   48.7665   29.3548 H   0  0  0  0  0  0  0  0  0  0  0  0
    7.0800   50.3239   29.0954 H   0  0  0  0  0  0  0  0  0  0  0  0
    5.3732   51.3748   27.5953 H   0  0  0  0  0  0  0  0  0  0  0  0
    4.6773   50.7801   29.1483 H   0  0  0  0  0  0  0  0  0  0  0  0
    4.4165   49.8400   27.6312 H   0  0  0  0  0  0  0  0  0  0  0  0
    5.6568   47.6826   26.7638 H   0  0  0  0  0  0  0  0  0  0  0  0
    9.8098   49.9178   25.1363 H   0  0  0  0  0  0  0  0  0  0  0  0
    7.4001   46.8582   22.4132 H   0  0  0  0  0  0  0  0  0  0  0  0
    8.3955   45.7061   23.4244 H   0  0  0  0  0  0  0  0  0  0  0  0
   11.3826   41.5438   31.4669 H   0  0  0  0  0  0  0  0  0  0  0  0
    9.8225   40.7224   31.7631 H   0  0  0  0  0  0  0  0  0  0  0  0
   11.6979   39.5037   30.3478 H   0  0  0  0  0  0  0  0  0  0  0  0
   10.1084   38.2786   32.6627 H   0  0  0  0  0  0  0  0  0  0  0  0
   13.6638   37.4472   31.2214 H   0  0  0  0  0  0  0  0  0  0  0  0
    8.9762   37.4191   30.9532 H   0  0  0  0  0  0  0  0  0  0  0  0
   11.2821   36.3054   32.5171 H   0  0  0  0  0  0  0  0  0  0  0  0
   10.8658   35.6935   30.4652 H   0  0  0  0  0  0  0  0  0  0  0  0
   12.3293   38.3523   34.7444 H   0  0  0  0  0  0  0  0  0  0  0  0
   16.7560   34.1777   32.4621 H   0  0  0  0  0  0  0  0  0  0  0  0
   15.3533   35.7361   37.5139 H   0  0  0  0  0  0  0  0  0  0  0  0
   16.6346   34.5300   37.1416 H   0  0  0  0  0  0  0  0  0  0  0  0
  1  2  2  0
  1  3  1  0
  3  4  1  0
  4  5  1  0
  6  1  1  0
  7  6  1  0
  6  8  1  0
  8  9  1  0
  9 10  2  0
 11  9  1  0
 10 12  1  0
 13 11  2  0
 12 14  2  0
 14 13  1  0
 14 15  1  0
 15 16  1  0
 16 17  1  0
 16 18  1  0
 18 19  2  0
 20 18  1  0
 19 21  1  0
 22 20  2  0
 20 23  1  0
 21 24  1  0
 21 25  2  0
 25 22  1  0
 23 26  1  0
 23 27  2  0
 24 28  1  0
 25 29  1  0
 28 29  1  0
  4 30  2  0
  4 31  1  0
 32 31  1  0
 32 33  1  0
 33 34  1  0
 33 35  1  0
 34 36  1  0
 35 37  1  0
 35 38  1  0
 38 36  1  0
 36 39  1  0
 38 40  1  0
 41 39  1  0
 42 39  1  0
 43 41  2  0
 41 44  1  0
 45 42  2  0
 46 43  1  0
 44 47  2  0
 44 45  1  0
 48 46  2  0
 48 47  1  0
 47 49  1  0
  6 50  1  1
  7 51  1  0
  7 52  1  0
  8 53  1  0
  8 54  1  0
 10 55  1  0
 11 56  1  0
 12 57  1  0
 13 58  1  0
 16 59  1  1
 17 60  1  0
 17 61  1  0
 17 62  1  0
 19 63  1  0
 22 64  1  0
 28 65  1  0
 28 66  1  0
 32 67  1  0
 32 68  1  0
 33 69  1  0
 35 70  1  0
 36 71  1  0
 37 72  1  0
 38 73  1  0
 40 74  1  0
 42 75  1  0
 46 76  1  0
 49 77  1  0
 49 78  1  0
M  CHG  3   5  -1  23   1  26  -1
M  END
>  <EmbedRMS>  (185) 
0.082571209183

$$$$

     RDKit          3D

 78 83  0  0  0  0  0  0  0  0999 V2000
   10.2834   43.7662   33.8256 C   0  0  0  0  0  0  0  0  0  0  0  0
   11.4102   43.5932   34.3753 O   0  0  0  0  0  0  0  0  0  0  0  0
    9.3639   42.7253   33.7348 O   0  0  0  0  0  0  0  0  0  0  0  0
    9.8907   41.2265   34.2939 P   0  0  0  0  0  0  0  0  0  0  0  0
   10.3733   41.4558   35.8835 O   0  0  0  0  0  0  0  0  0  0  0  0
    9.9545   45.0694   33.2033 C   0  0  1  0  0  0  0  0  0  0  0  0
   11.0271   46.0323   33.4755 N   0  0  0  0  0  0  0  0  0  0  0  0
    9.7469   44.8476   31.6873 C   0  0  0  0  0  0  0  0  0  0  0  0
    8.7926   45.8397   31.0831 C   0  0  0  0  0  0  0  0  0  0  0  0
    7.4060   45.6016   31.0993 C   0  0  0  0  0  0  0  0  0  0  0  0
    9.2820   46.9876   30.4433 C   0  0  0  0  0  0  0  0  0  0  0  0
    6.5274   46.5046   30.4860 C   0  0  0  0  0  0  0  0  0  0  0  0
    8.4030   47.8903   29.8338 C   0  0  0  0  0  0  0  0  0  0  0  0
    7.0134   47.6522   29.8440 C   0  0  0  0  0  0  0  0  0  0  0  0
    6.0765   48.5231   29.2533 O   0  0  0  0  0  0  0  0  0  0  0  0
    6.3336   49.5853   28.3194 C   0  0  2  0  0  0  0  0  0  0  0  0
    7.1461   49.0610   27.1176 C   0  0  0  0  0  0  0  0  0  0  0  0
    6.9402   50.8310   28.9715 C   0  0  0  0  0  0  0  0  0  0  0  0
    7.1782   50.8596   30.3722 C   0  0  0  0  0  0  0  0  0  0  0  0
    7.2666   51.9979   28.1974 C   0  0  0  0  0  0  0  0  0  0  0  0
    7.8007   51.9714   30.9232 C   0  0  0  0  0  0  0  0  0  0  0  0
    7.9151   53.0934   28.8118 C   0  0  0  0  0  0  0  0  0  0  0  0
    6.9120   52.1059   26.8112 N   0  0  0  0  0  0  0  0  0  0  0  0
    8.1465   52.1952   32.2422 O   0  0  0  0  0  0  0  0  0  0  0  0
    8.1630   53.0363   30.1748 C   0  0  0  0  0  0  0  0  0  0  0  0
    5.6176   51.8650   26.4129 O   0  0  0  0  0  0  0  0  0  0  0  0
    7.7002   52.6438   26.0063 O   0  0  0  0  0  0  0  0  0  0  0  0
    8.7694   53.4842   32.3235 C   0  0  0  0  0  0  0  0  0  0  0  0
    8.7583   53.9875   30.9808 O   0  0  0  0  0  0  0  0  0  0  0  0
    8.8126   40.1848   34.2122 O   0  0  0  0  0  0  0  0  0  0  0  0
   11.2418   40.7943   33.3694 O   0  0  0  0  0  0  0  0  0  0  0  0
   10.9179   40.6904   31.9970 C   0  0  0  0  0  0  0  0  0  0  0  0
   11.5181   39.3814   31.4408 C   0  0  0  0  0  0  0  0  0  0  0  0
   12.7497   39.0870   32.0746 O   0  0  0  0  0  0  0  0  0  0  0  0
   10.6045   38.1891   31.6655 C   0  0  0  0  0  0  0  0  0  0  0  0
   12.9344   37.6801   32.0290 C   0  0  0  0  0  0  0  0  0  0  0  0
    9.6418   38.0758   30.6441 O   0  0  0  0  0  0  0  0  0  0  0  0
   11.5741   37.0170   31.7045 C   0  0  0  0  0  0  0  0  0  0  0  0
   13.4851   37.2125   33.3241 N   0  0  0  0  0  0  0  0  0  0  0  0
   11.6079   36.3407   30.4680 O   0  0  0  0  0  0  0  0  0  0  0  0
   14.4801   36.3321   33.5727 C   0  0  0  0  0  0  0  0  0  0  0  0
   13.1140   37.6277   34.5693 C   0  0  0  0  0  0  0  0  0  0  0  0
   15.2073   35.6155   32.6739 N   0  0  0  0  0  0  0  0  0  0  0  0
   14.6758   36.2306   34.9182 C   0  0  0  0  0  0  0  0  0  0  0  0
   13.8217   37.0451   35.5785 N   0  0  0  0  0  0  0  0  0  0  0  0
   16.1639   34.7602   33.1546 C   0  0  0  0  0  0  0  0  0  0  0  0
   15.6526   35.3506   35.4130 C   0  0  0  0  0  0  0  0  0  0  0  0
   16.3794   34.6316   34.5041 N   0  0  0  0  0  0  0  0  0  0  0  0
   15.9001   35.1933   36.8089 N   0  0  0  0  0  0  0  0  0  0  0  0
    9.0118   45.4316   33.6708 H   0  0  0  0  0  0  0  0  0  0  0  0
   10.7254   46.9689   33.1215 H   0  0  0  0  0  0  0  0  0  0  0  0
   11.8903   45.7663   32.9466 H   0  0  0  0  0  0  0  0  0  0  0  0
   10.7234   44.8811   31.1555 H   0  0  0  0  0  0  0  0  0  0  0  0
    9.3421   43.8323   31.4761 H   0  0  0  0  0  0  0  0  0  0  0  0
    7.0085   44.7176   31.5825 H   0  0  0  0  0  0  0  0  0  0  0  0
   10.3459   47.1895   30.4208 H   0  0  0  0  0  0  0  0  0  0  0  0
    5.4627   46.3093   30.5070 H   0  0  0  0  0  0  0  0  0  0  0  0
    8.8173   48.7798   29.3863 H   0  0  0  0  0  0  0  0  0  0  0  0
    5.3374   49.8833   27.9320 H   0  0  0  0  0  0  0  0  0  0  0  0
    6.8518   49.5811   26.1840 H   0  0  0  0  0  0  0  0  0  0  0  0
    6.9464   47.9798   26.9599 H   0  0  0  0  0  0  0  0  0  0  0  0
    8.2360   49.2072   27.2597 H   0  0  0  0  0  0  0  0  0  0  0  0
    6.8968   50.0477   31.0264 H   0  0  0  0  0  0  0  0  0  0  0  0
    8.1821   53.9784   28.2485 H   0  0  0  0  0  0  0  0  0  0  0  0
    9.8137   53.3840   32.6866 H   0  0  0  0  0  0  0  0  0  0  0  0
    8.1832   54.1528   32.9883 H   0  0  0  0  0  0  0  0  0  0  0  0
    9.8289   40.7385   31.7617 H   0  0  0  0  0  0  0  0  0  0  0  0
   11.3945   41.5459   31.4722 H   0  0  0  0  0  0  0  0  0  0  0  0
   11.6994   39.5069   30.3484 H   0  0  0  0  0  0  0  0  0  0  0  0
   10.1090   38.2635   32.6632 H   0  0  0  0  0  0  0  0  0  0  0  0
   13.6662   37.4515   31.2224 H   0  0  0  0  0  0  0  0  0  0  0  0
    8.9009   38.6925   30.8793 H   0  0  0  0  0  0  0  0  0  0  0  0
   11.2650   36.3083   32.5087 H   0  0  0  0  0  0  0  0  0  0  0  0
   12.1372   35.5140   30.6163 H   0  0  0  0  0  0  0  0  0  0  0  0
   12.3297   38.3530   34.7450 H   0  0  0  0  0  0  0  0  0  0  0  0
   16.7558   34.1781   32.4619 H   0  0  0  0  0  0  0  0  0  0  0  0
   16.6346   34.5300   37.1414 H   0  0  0  0  0  0  0  0  0  0  0  0
   15.3533   35.7360   37.5138 H   0  0  0  0  0  0  0  0  0  0  0  0
  1  2  2  0
  1  3  1  0
  3  4  1  0
  4  5  1  0
  6  1  1  0
  7  6  1  0
  6  8  1  0
  8  9  1  0
  9 10  2  0
 11  9  1  0
 10 12  1  0
 13 11  2  0
 12 14  2  0
 14 13  1  0
 14 15  1  0
 15 16  1  0
 16 17  1  0
 16 18  1  0
 18 19  2  0
 20 18  1  0
 19 21  1  0
 22 20  2  0
 20 23  1  0
 21 24  1  0
 21 25  2  0
 25 22  1  0
 23 26  1  0
 23 27  2  0
 24 28  1  0
 25 29  1  0
 28 29  1  0
  4 30  2  0
  4 31  1  0
 32 31  1  0
 32 33  1  0
 33 34  1  0
 33 35  1  0
 34 36  1  0
 35 37  1  0
 35 38  1  0
 38 36  1  0
 36 39  1  0
 38 40  1  0
 41 39  1  0
 42 39  1  0
 43 41  2  0
 41 44  1  0
 45 42  2  0
 46 43  1  0
 44 47  2  0
 44 45  1  0
 48 46  2  0
 48 47  1  0
 47 49  1  0
  6 50  1  1
  7 51  1  0
  7 52  1  0
  8 53  1  0
  8 54  1  0
 10 55  1  0
 11 56  1  0
 12 57  1  0
 13 58  1  0
 16 59  1  6
 17 60  1  0
 17 61  1  0
 17 62  1  0
 19 63  1  0
 22 64  1  0
 28 65  1  0
 28 66  1  0
 32 67  1  0
 32 68  1  0
 33 69  1  0
 35 70  1  0
 36 71  1  0
 37 72  1  0
 38 73  1  0
 40 74  1  0
 42 75  1  0
 46 76  1  0
 49 77  1  0
 49 78  1  0
M  CHG  3   5  -1  23   1  26  -1
M  END
>  <EmbedRMS>  (186) 
0.0828558830821

$$$$

     RDKit          3D

 78 83  0  0  0  0  0  0  0  0999 V2000
   10.2803   43.7665   33.8250 C   0  0  0  0  0  0  0  0  0  0  0  0
   11.4110   43.5920   34.3666 O   0  0  0  0  0  0  0  0  0  0  0  0
    9.3619   42.7250   33.7344 O   0  0  0  0  0  0  0  0  0  0  0  0
    9.8903   41.2265   34.2931 P   0  0  0  0  0  0  0  0  0  0  0  0
   10.3742   41.4563   35.8824 O   0  0  0  0  0  0  0  0  0  0  0  0
    9.9458   45.0737   33.2112 C   0  0  1  0  0  0  0  0  0  0  0  0
   11.0264   46.0294   33.4709 N   0  0  0  0  0  0  0  0  0  0  0  0
    9.7540   44.8542   31.6949 C   0  0  0  0  0  0  0  0  0  0  0  0
    8.7957   45.8411   31.0847 C   0  0  0  0  0  0  0  0  0  0  0  0
    7.4089   45.5998   31.1008 C   0  0  0  0  0  0  0  0  0  0  0  0
    9.2825   46.9876   30.4390 C   0  0  0  0  0  0  0  0  0  0  0  0
    6.5259   46.4985   30.4860 C   0  0  0  0  0  0  0  0  0  0  0  0
    8.3999   47.8870   29.8303 C   0  0  0  0  0  0  0  0  0  0  0  0
    7.0185   47.6556   29.8482 C   0  0  0  0  0  0  0  0  0  0  0  0
    6.1793   48.5980   29.2309 O   0  0  0  0  0  0  0  0  0  0  0  0
    4.7506   48.5560   29.2298 C   0  0  2  0  0  0  0  0  0  0  0  0
    4.2013   49.5941   28.2518 C   0  0  0  0  0  0  0  0  0  0  0  0
    4.1656   48.7673   30.6189 C   0  0  0  0  0  0  0  0  0  0  0  0
    2.9640   48.0833   30.9247 C   0  0  0  0  0  0  0  0  0  0  0  0
    4.7887   49.5745   31.6345 C   0  0  0  0  0  0  0  0  0  0  0  0
    2.4419   48.1926   32.2062 C   0  0  0  0  0  0  0  0  0  0  0  0
    4.2174   49.6325   32.9258 C   0  0  0  0  0  0  0  0  0  0  0  0
    5.9910   50.3212   31.3923 N   0  0  0  0  0  0  0  0  0  0  0  0
    1.2991   47.6108   32.7206 O   0  0  0  0  0  0  0  0  0  0  0  0
    3.0442   48.9309   33.1655 C   0  0  0  0  0  0  0  0  0  0  0  0
    6.9505   50.4054   32.3747 O   0  0  0  0  0  0  0  0  0  0  0  0
    6.0799   51.0715   30.3998 O   0  0  0  0  0  0  0  0  0  0  0  0
    1.1777   48.0119   34.0921 C   0  0  0  0  0  0  0  0  0  0  0  0
    2.3127   48.8542   34.3351 O   0  0  0  0  0  0  0  0  0  0  0  0
    8.8124   40.1845   34.2129 O   0  0  0  0  0  0  0  0  0  0  0  0
   11.2405   40.7948   33.3669 O   0  0  0  0  0  0  0  0  0  0  0  0
   10.9133   40.6866   31.9952 C   0  0  0  0  0  0  0  0  0  0  0  0
   11.5166   39.3787   31.4404 C   0  0  0  0  0  0  0  0  0  0  0  0
   12.7485   39.0849   32.0735 O   0  0  0  0  0  0  0  0  0  0  0  0
   10.6039   38.1884   31.6669 C   0  0  0  0  0  0  0  0  0  0  0  0
   12.9329   37.6776   32.0284 C   0  0  0  0  0  0  0  0  0  0  0  0
    9.6373   38.0938   30.6485 O   0  0  0  0  0  0  0  0  0  0  0  0
   11.5737   37.0141   31.7055 C   0  0  0  0  0  0  0  0  0  0  0  0
   13.4853   37.2120   33.3238 N   0  0  0  0  0  0  0  0  0  0  0  0
   11.6210   36.3379   30.4684 O   0  0  0  0  0  0  0  0  0  0  0  0
   14.4804   36.3319   33.5726 C   0  0  0  0  0  0  0  0  0  0  0  0
   13.1141   37.6275   34.5689 C   0  0  0  0  0  0  0  0  0  0  0  0
   15.2076   35.6152   32.6740 N   0  0  0  0  0  0  0  0  0  0  0  0
   14.6761   36.2306   34.9181 C   0  0  0  0  0  0  0  0  0  0  0  0
   13.8218   37.0451   35.5783 N   0  0  0  0  0  0  0  0  0  0  0  0
   16.1642   34.7600   33.1548 C   0  0  0  0  0  0  0  0  0  0  0  0
   15.6528   35.3506   35.4131 C   0  0  0  0  0  0  0  0  0  0  0  0
   16.3796   34.6315   34.5043 N   0  0  0  0  0  0  0  0  0  0  0  0
   15.9001   35.1933   36.8090 N   0  0  0  0  0  0  0  0  0  0  0  0
    8.9993   45.4382   33.6720 H   0  0  0  0  0  0  0  0  0  0  0  0
   11.0499   46.2278   34.4983 H   0  0  0  0  0  0  0  0  0  0  0  0
   10.7760   46.9371   33.0161 H   0  0  0  0  0  0  0  0  0  0  0  0
    9.3647   43.8355   31.4711 H   0  0  0  0  0  0  0  0  0  0  0  0
   10.7412   44.9081   31.1837 H   0  0  0  0  0  0  0  0  0  0  0  0
    7.0149   44.7149   31.5853 H   0  0  0  0  0  0  0  0  0  0  0  0
   10.3463   47.1876   30.4050 H   0  0  0  0  0  0  0  0  0  0  0  0
    5.4677   46.2819   30.5165 H   0  0  0  0  0  0  0  0  0  0  0  0
    8.7913   48.7707   29.3426 H   0  0  0  0  0  0  0  0  0  0  0  0
    4.4395   47.5615   28.8378 H   0  0  0  0  0  0  0  0  0  0  0  0
    3.0981   49.4911   28.1676 H   0  0  0  0  0  0  0  0  0  0  0  0
    4.6449   49.4333   27.2464 H   0  0  0  0  0  0  0  0  0  0  0  0
    4.4352   50.6261   28.5810 H   0  0  0  0  0  0  0  0  0  0  0  0
    2.4593   47.4704   30.1883 H   0  0  0  0  0  0  0  0  0  0  0  0
    4.6661   50.2236   33.7138 H   0  0  0  0  0  0  0  0  0  0  0  0
    0.2375   48.5826   34.2436 H   0  0  0  0  0  0  0  0  0  0  0  0
    1.2109   47.1231   34.7565 H   0  0  0  0  0  0  0  0  0  0  0  0
    9.8224   40.7224   31.7629 H   0  0  0  0  0  0  0  0  0  0  0  0
   11.3826   41.5438   31.4666 H   0  0  0  0  0  0  0  0  0  0  0  0
   11.6979   39.5036   30.3478 H   0  0  0  0  0  0  0  0  0  0  0  0
   10.1084   38.2787   32.6627 H   0  0  0  0  0  0  0  0  0  0  0  0
   13.6638   37.4473   31.2214 H   0  0  0  0  0  0  0  0  0  0  0  0
    8.9763   37.4190   30.9532 H   0  0  0  0  0  0  0  0  0  0  0  0
   11.2821   36.3054   32.5172 H   0  0  0  0  0  0  0  0  0  0  0  0
   10.8658   35.6935   30.4652 H   0  0  0  0  0  0  0  0  0  0  0  0
   12.3293   38.3523   34.7445 H   0  0  0  0  0  0  0  0  0  0  0  0
   16.7561   34.1779   32.4621 H   0  0  0  0  0  0  0  0  0  0  0  0
   16.6345   34.5300   37.1416 H   0  0  0  0  0  0  0  0  0  0  0  0
   15.3533   35.7361   37.5138 H   0  0  0  0  0  0  0  0  0  0  0  0
  1  2  2  0
  1  3  1  0
  3  4  1  0
  4  5  1  0
  6  1  1  0
  7  6  1  0
  6  8  1  0
  8  9  1  0
  9 10  2  0
 11  9  1  0
 10 12  1  0
 13 11  2  0
 12 14  2  0
 14 13  1  0
 14 15  1  0
 15 16  1  0
 16 17  1  0
 16 18  1  0
 18 19  2  0
 20 18  1  0
 19 21  1  0
 22 20  2  0
 20 23  1  0
 21 24  1  0
 21 25  2  0
 25 22  1  0
 23 26  1  0
 23 27  2  0
 24 28  1  0
 25 29  1  0
 28 29  1  0
  4 30  2  0
  4 31  1  0
 32 31  1  0
 32 33  1  0
 33 34  1  0
 33 35  1  0
 34 36  1  0
 35 37  1  0
 35 38  1  0
 38 36  1  0
 36 39  1  0
 38 40  1  0
 41 39  1  0
 42 39  1  0
 43 41  2  0
 41 44  1  0
 45 42  2  0
 46 43  1  0
 44 47  2  0
 44 45  1  0
 48 46  2  0
 48 47  1  0
 47 49  1  0
  6 50  1  1
  7 51  1  0
  7 52  1  0
  8 53  1  0
  8 54  1  0
 10 55  1  0
 11 56  1  0
 12 57  1  0
 13 58  1  0
 16 59  1  6
 17 60  1  0
 17 61  1  0
 17 62  1  0
 19 63  1  0
 22 64  1  0
 28 65  1  0
 28 66  1  0
 32 67  1  0
 32 68  1  0
 33 69  1  0
 35 70  1  0
 36 71  1  0
 37 72  1  0
 38 73  1  0
 40 74  1  0
 42 75  1  0
 46 76  1  0
 49 77  1  0
 49 78  1  0
M  CHG  3   5  -1  23   1  26  -1
M  END
>  <EmbedRMS>  (187) 
0.0823855834287

$$$$

     RDKit          3D

 78 83  0  0  0  0  0  0  0  0999 V2000
   10.2801   43.7667   33.8251 C   0  0  0  0  0  0  0  0  0  0  0  0
   11.4109   43.5921   34.3665 O   0  0  0  0  0  0  0  0  0  0  0  0
    9.3615   42.7252   33.7348 O   0  0  0  0  0  0  0  0  0  0  0  0
    9.8895   41.2270   34.2945 P   0  0  0  0  0  0  0  0  0  0  0  0
   10.3731   41.4569   35.8837 O   0  0  0  0  0  0  0  0  0  0  0  0
    9.9454   45.0740   33.2115 C   0  0  1  0  0  0  0  0  0  0  0  0
   11.0261   46.0297   33.4709 N   0  0  0  0  0  0  0  0  0  0  0  0
    9.7533   44.8546   31.6952 C   0  0  0  0  0  0  0  0  0  0  0  0
    8.7952   45.8420   31.0854 C   0  0  0  0  0  0  0  0  0  0  0  0
    7.4077   45.5992   31.0995 C   0  0  0  0  0  0  0  0  0  0  0  0
    9.2832   46.9876   30.4366 C   0  0  0  0  0  0  0  0  0  0  0  0
    6.5273   46.4982   30.4818 C   0  0  0  0  0  0  0  0  0  0  0  0
    8.4011   47.8871   29.8261 C   0  0  0  0  0  0  0  0  0  0  0  0
    7.0187   47.6538   29.8591 C   0  0  0  0  0  0  0  0  0  0  0  0
    6.1240   48.5470   29.2608 O   0  0  0  0  0  0  0  0  0  0  0  0
    5.7149   49.7998   29.8273 C   0  0  2  0  0  0  0  0  0  0  0  0
    6.8717   50.8022   29.9138 C   0  0  0  0  0  0  0  0  0  0  0  0
    5.0146   49.6078   31.1702 C   0  0  0  0  0  0  0  0  0  0  0  0
    5.7652   49.1542   32.2862 C   0  0  0  0  0  0  0  0  0  0  0  0
    3.6005   49.8070   31.3234 C   0  0  0  0  0  0  0  0  0  0  0  0
    5.0983   48.8774   33.4717 C   0  0  0  0  0  0  0  0  0  0  0  0
    2.9746   49.4943   32.5504 C   0  0  0  0  0  0  0  0  0  0  0  0
    2.7920   50.3364   30.2642 N   0  0  0  0  0  0  0  0  0  0  0  0
    5.6226   48.4141   34.6631 O   0  0  0  0  0  0  0  0  0  0  0  0
    3.7615   49.0345   33.5967 C   0  0  0  0  0  0  0  0  0  0  0  0
    1.5590   49.7818   30.0104 O   0  0  0  0  0  0  0  0  0  0  0  0
    3.0606   51.4549   29.7795 O   0  0  0  0  0  0  0  0  0  0  0  0
    4.5425   48.2725   35.5958 C   0  0  0  0  0  0  0  0  0  0  0  0
    3.3721   48.6801   34.8741 O   0  0  0  0  0  0  0  0  0  0  0  0
    8.8122   40.1845   34.2135 O   0  0  0  0  0  0  0  0  0  0  0  0
   11.2401   40.7950   33.3698 O   0  0  0  0  0  0  0  0  0  0  0  0
   10.9143   40.6914   31.9981 C   0  0  0  0  0  0  0  0  0  0  0  0
   11.5269   39.3912   31.4385 C   0  0  0  0  0  0  0  0  0  0  0  0
   12.7519   39.0911   32.0837 O   0  0  0  0  0  0  0  0  0  0  0  0
   10.6113   38.1932   31.6451 C   0  0  0  0  0  0  0  0  0  0  0  0
   12.9413   37.6838   32.0297 C   0  0  0  0  0  0  0  0  0  0  0  0
    9.6064   38.0877   30.6599 O   0  0  0  0  0  0  0  0  0  0  0  0
   11.5822   37.0197   31.6877 C   0  0  0  0  0  0  0  0  0  0  0  0
   13.4840   37.2105   33.3254 N   0  0  0  0  0  0  0  0  0  0  0  0
   11.6179   36.3072   30.4690 O   0  0  0  0  0  0  0  0  0  0  0  0
   14.4797   36.3309   33.5738 C   0  0  0  0  0  0  0  0  0  0  0  0
   13.1137   37.6269   34.5702 C   0  0  0  0  0  0  0  0  0  0  0  0
   15.2074   35.6152   32.6747 N   0  0  0  0  0  0  0  0  0  0  0  0
   14.6756   36.2298   34.9190 C   0  0  0  0  0  0  0  0  0  0  0  0
   13.8217   37.0445   35.5793 N   0  0  0  0  0  0  0  0  0  0  0  0
   16.1643   34.7603   33.1551 C   0  0  0  0  0  0  0  0  0  0  0  0
   15.6528   35.3503   35.4136 C   0  0  0  0  0  0  0  0  0  0  0  0
   16.3798   34.6316   34.5046 N   0  0  0  0  0  0  0  0  0  0  0  0
   15.9004   35.1930   36.8094 N   0  0  0  0  0  0  0  0  0  0  0  0
    8.9989   45.4386   33.6725 H   0  0  0  0  0  0  0  0  0  0  0  0
   11.0495   46.2284   34.4983 H   0  0  0  0  0  0  0  0  0  0  0  0
   10.7756   46.9372   33.0158 H   0  0  0  0  0  0  0  0  0  0  0  0
    9.3634   43.8360   31.4715 H   0  0  0  0  0  0  0  0  0  0  0  0
   10.7404   44.9080   31.1839 H   0  0  0  0  0  0  0  0  0  0  0  0
    7.0123   44.7147   31.5834 H   0  0  0  0  0  0  0  0  0  0  0  0
   10.3476   47.1833   30.3964 H   0  0  0  0  0  0  0  0  0  0  0  0
    5.4621   46.3061   30.5016 H   0  0  0  0  0  0  0  0  0  0  0  0
    8.7961   48.7558   29.3166 H   0  0  0  0  0  0  0  0  0  0  0  0
    5.0107   50.2292   29.0915 H   0  0  0  0  0  0  0  0  0  0  0  0
    7.6468   50.4773   30.6365 H   0  0  0  0  0  0  0  0  0  0  0  0
    6.4864   51.7933   30.2352 H   0  0  0  0  0  0  0  0  0  0  0  0
    7.3434   50.9171   28.9149 H   0  0  0  0  0  0  0  0  0  0  0  0
    6.8334   48.9965   32.2335 H   0  0  0  0  0  0  0  0  0  0  0  0
    1.9095   49.6290   32.6888 H   0  0  0  0  0  0  0  0  0  0  0  0
    4.4468   47.2134   35.9145 H   0  0  0  0  0  0  0  0  0  0  0  0
    4.7025   48.9352   36.4720 H   0  0  0  0  0  0  0  0  0  0  0  0
   11.3774   41.5548   31.4741 H   0  0  0  0  0  0  0  0  0  0  0  0
    9.8233   40.7200   31.7652 H   0  0  0  0  0  0  0  0  0  0  0  0
   11.7312   39.5362   30.3532 H   0  0  0  0  0  0  0  0  0  0  0  0
   10.1202   38.2696   32.6410 H   0  0  0  0  0  0  0  0  0  0  0  0
   13.6850   37.4639   31.2321 H   0  0  0  0  0  0  0  0  0  0  0  0
   10.0251   38.1792   29.7654 H   0  0  0  0  0  0  0  0  0  0  0  0
   11.2757   36.3135   32.4907 H   0  0  0  0  0  0  0  0  0  0  0  0
   11.9839   36.9111   29.7708 H   0  0  0  0  0  0  0  0  0  0  0  0
   12.3307   38.3537   34.7458 H   0  0  0  0  0  0  0  0  0  0  0  0
   16.7566   34.1786   32.4623 H   0  0  0  0  0  0  0  0  0  0  0  0
   16.6353   34.5301   37.1419 H   0  0  0  0  0  0  0  0  0  0  0  0
   15.3535   35.7355   37.5144 H   0  0  0  0  0  0  0  0  0  0  0  0
  1  2  2  0
  1  3  1  0
  3  4  1  0
  4  5  1  0
  6  1  1  0
  7  6  1  0
  6  8  1  0
  8  9  1  0
  9 10  2  0
 11  9  1  0
 10 12  1  0
 13 11  2  0
 12 14  2  0
 14 13  1  0
 14 15  1  0
 15 16  1  0
 16 17  1  0
 16 18  1  0
 18 19  2  0
 20 18  1  0
 19 21  1  0
 22 20  2  0
 20 23  1  0
 21 24  1  0
 21 25  2  0
 25 22  1  0
 23 26  1  0
 23 27  2  0
 24 28  1  0
 25 29  1  0
 28 29  1  0
  4 30  2  0
  4 31  1  0
 32 31  1  0
 32 33  1  0
 33 34  1  0
 33 35  1  0
 34 36  1  0
 35 37  1  0
 35 38  1  0
 38 36  1  0
 36 39  1  0
 38 40  1  0
 41 39  1  0
 42 39  1  0
 43 41  2  0
 41 44  1  0
 45 42  2  0
 46 43  1  0
 44 47  2  0
 44 45  1  0
 48 46  2  0
 48 47  1  0
 47 49  1  0
  6 50  1  1
  7 51  1  0
  7 52  1  0
  8 53  1  0
  8 54  1  0
 10 55  1  0
 11 56  1  0
 12 57  1  0
 13 58  1  0
 16 59  1  6
 17 60  1  0
 17 61  1  0
 17 62  1  0
 19 63  1  0
 22 64  1  0
 28 65  1  0
 28 66  1  0
 32 67  1  0
 32 68  1  0
 33 69  1  0
 35 70  1  0
 36 71  1  0
 37 72  1  0
 38 73  1  0
 40 74  1  0
 42 75  1  0
 46 76  1  0
 49 77  1  0
 49 78  1  0
M  CHG  3   5  -1  23   1  26  -1
M  END
>  <EmbedRMS>  (188) 
0.08075887338

$$$$

     RDKit          3D

 78 83  0  0  0  0  0  0  0  0999 V2000
   10.2835   43.7662   33.8257 C   0  0  0  0  0  0  0  0  0  0  0  0
   11.4102   43.5930   34.3753 O   0  0  0  0  0  0  0  0  0  0  0  0
    9.3638   42.7255   33.7351 O   0  0  0  0  0  0  0  0  0  0  0  0
    9.8903   41.2268   34.2946 P   0  0  0  0  0  0  0  0  0  0  0  0
   10.3728   41.4561   35.8842 O   0  0  0  0  0  0  0  0  0  0  0  0
    9.9547   45.0695   33.2035 C   0  0  1  0  0  0  0  0  0  0  0  0
   11.0273   46.0322   33.4759 N   0  0  0  0  0  0  0  0  0  0  0  0
    9.7472   44.8482   31.6875 C   0  0  0  0  0  0  0  0  0  0  0  0
    8.7927   45.8407   31.0841 C   0  0  0  0  0  0  0  0  0  0  0  0
    7.4061   45.6011   31.0993 C   0  0  0  0  0  0  0  0  0  0  0  0
    9.2817   46.9877   30.4423 C   0  0  0  0  0  0  0  0  0  0  0  0
    6.5242   46.5013   30.4855 C   0  0  0  0  0  0  0  0  0  0  0  0
    8.4004   47.8880   29.8331 C   0  0  0  0  0  0  0  0  0  0  0  0
    7.0185   47.6567   29.8446 C   0  0  0  0  0  0  0  0  0  0  0  0
    6.1873   48.6015   29.2197 O   0  0  0  0  0  0  0  0  0  0  0  0
    4.7664   48.5127   29.0770 C   0  0  2  0  0  0  0  0  0  0  0  0
    4.4354   47.5186   27.9526 C   0  0  0  0  0  0  0  0  0  0  0  0
    4.2153   49.9227   28.8701 C   0  0  0  0  0  0  0  0  0  0  0  0
    3.4345   50.2559   27.7276 C   0  0  0  0  0  0  0  0  0  0  0  0
    4.5164   50.9579   29.8229 C   0  0  0  0  0  0  0  0  0  0  0  0
    3.0093   51.5680   27.5680 C   0  0  0  0  0  0  0  0  0  0  0  0
    4.0660   52.2785   29.5950 C   0  0  0  0  0  0  0  0  0  0  0  0
    5.2883   50.6938   31.0073 N   0  0  0  0  0  0  0  0  0  0  0  0
    2.2541   52.1057   26.5433 O   0  0  0  0  0  0  0  0  0  0  0  0
    3.3138   52.5363   28.4595 C   0  0  0  0  0  0  0  0  0  0  0  0
    4.9890   49.6189   31.8112 O   0  0  0  0  0  0  0  0  0  0  0  0
    6.1036   51.5438   31.4213 O   0  0  0  0  0  0  0  0  0  0  0  0
    2.0738   53.5027   26.8122 C   0  0  0  0  0  0  0  0  0  0  0  0
    2.7669   53.7357   28.0456 O   0  0  0  0  0  0  0  0  0  0  0  0
    8.8125   40.1848   34.2126 O   0  0  0  0  0  0  0  0  0  0  0  0
   11.2416   40.7948   33.3707 O   0  0  0  0  0  0  0  0  0  0  0  0
   10.9179   40.6922   31.9984 C   0  0  0  0  0  0  0  0  0  0  0  0
   11.5175   39.3838   31.4423 C   0  0  0  0  0  0  0  0  0  0  0  0
   12.7508   39.0887   32.0752 O   0  0  0  0  0  0  0  0  0  0  0  0
   10.6028   38.1916   31.6659 C   0  0  0  0  0  0  0  0  0  0  0  0
   12.9384   37.6818   32.0278 C   0  0  0  0  0  0  0  0  0  0  0  0
    9.6371   38.0806   30.6470 O   0  0  0  0  0  0  0  0  0  0  0  0
   11.5780   37.0215   31.6935 C   0  0  0  0  0  0  0  0  0  0  0  0
   13.4844   37.2119   33.3242 N   0  0  0  0  0  0  0  0  0  0  0  0
   11.6095   36.3201   30.4679 O   0  0  0  0  0  0  0  0  0  0  0  0
   14.4797   36.3318   33.5730 C   0  0  0  0  0  0  0  0  0  0  0  0
   13.1135   37.6278   34.5691 C   0  0  0  0  0  0  0  0  0  0  0  0
   15.2073   35.6155   32.6742 N   0  0  0  0  0  0  0  0  0  0  0  0
   14.6754   36.2305   34.9184 C   0  0  0  0  0  0  0  0  0  0  0  0
   13.8213   37.0452   35.5785 N   0  0  0  0  0  0  0  0  0  0  0  0
   16.1640   34.7604   33.1549 C   0  0  0  0  0  0  0  0  0  0  0  0
   15.6524   35.3507   35.4132 C   0  0  0  0  0  0  0  0  0  0  0  0
   16.3794   34.6318   34.5044 N   0  0  0  0  0  0  0  0  0  0  0  0
   15.8999   35.1934   36.8091 N   0  0  0  0  0  0  0  0  0  0  0  0
    9.0120   45.4317   33.6711 H   0  0  0  0  0  0  0  0  0  0  0  0
   10.7259   46.9688   33.1215 H   0  0  0  0  0  0  0  0  0  0  0  0
   11.8908   45.7660   32.9475 H   0  0  0  0  0  0  0  0  0  0  0  0
    9.3426   43.8329   31.4758 H   0  0  0  0  0  0  0  0  0  0  0  0
   10.7237   44.8822   31.1557 H   0  0  0  0  0  0  0  0  0  0  0  0
    7.0106   44.7161   31.5826 H   0  0  0  0  0  0  0  0  0  0  0  0
   10.3459   47.1865   30.4112 H   0  0  0  0  0  0  0  0  0  0  0  0
    5.4672   46.2830   30.5205 H   0  0  0  0  0  0  0  0  0  0  0  0
    8.7941   48.7710   29.3456 H   0  0  0  0  0  0  0  0  0  0  0  0
    4.3062   48.1232   30.0075 H   0  0  0  0  0  0  0  0  0  0  0  0
    4.8738   46.5241   28.1742 H   0  0  0  0  0  0  0  0  0  0  0  0
    4.8578   47.8686   26.9867 H   0  0  0  0  0  0  0  0  0  0  0  0
    3.3363   47.3858   27.8631 H   0  0  0  0  0  0  0  0  0  0  0  0
    3.1630   49.5360   26.9701 H   0  0  0  0  0  0  0  0  0  0  0  0
    4.2837   53.0765   30.2932 H   0  0  0  0  0  0  0  0  0  0  0  0
    2.5226   54.1114   25.9995 H   0  0  0  0  0  0  0  0  0  0  0  0
    0.9945   53.7352   26.9292 H   0  0  0  0  0  0  0  0  0  0  0  0
   11.3952   41.5478   31.4744 H   0  0  0  0  0  0  0  0  0  0  0  0
    9.8291   40.7409   31.7627 H   0  0  0  0  0  0  0  0  0  0  0  0
   11.6981   39.5115   30.3500 H   0  0  0  0  0  0  0  0  0  0  0  0
   10.1117   38.2604   32.6660 H   0  0  0  0  0  0  0  0  0  0  0  0
   13.6767   37.4556   31.2267 H   0  0  0  0  0  0  0  0  0  0  0  0
    8.8961   38.6952   30.8872 H   0  0  0  0  0  0  0  0  0  0  0  0
   11.2791   36.3072   32.4922 H   0  0  0  0  0  0  0  0  0  0  0  0
   11.8828   36.9598   29.7588 H   0  0  0  0  0  0  0  0  0  0  0  0
   12.3300   38.3539   34.7446 H   0  0  0  0  0  0  0  0  0  0  0  0
   16.7561   34.1785   32.4622 H   0  0  0  0  0  0  0  0  0  0  0  0
   16.6347   34.5303   37.1416 H   0  0  0  0  0  0  0  0  0  0  0  0
   15.3531   35.7360   37.5140 H   0  0  0  0  0  0  0  0  0  0  0  0
  1  2  2  0
  1  3  1  0
  3  4  1  0
  4  5  1  0
  6  1  1  0
  7  6  1  0
  6  8  1  0
  8  9  1  0
  9 10  2  0
 11  9  1  0
 10 12  1  0
 13 11  2  0
 12 14  2  0
 14 13  1  0
 14 15  1  0
 15 16  1  0
 16 17  1  0
 16 18  1  0
 18 19  2  0
 20 18  1  0
 19 21  1  0
 22 20  2  0
 20 23  1  0
 21 24  1  0
 21 25  2  0
 25 22  1  0
 23 26  1  0
 23 27  2  0
 24 28  1  0
 25 29  1  0
 28 29  1  0
  4 30  2  0
  4 31  1  0
 32 31  1  0
 32 33  1  0
 33 34  1  0
 33 35  1  0
 34 36  1  0
 35 37  1  0
 35 38  1  0
 38 36  1  0
 36 39  1  0
 38 40  1  0
 41 39  1  0
 42 39  1  0
 43 41  2  0
 41 44  1  0
 45 42  2  0
 46 43  1  0
 44 47  2  0
 44 45  1  0
 48 46  2  0
 48 47  1  0
 47 49  1  0
  6 50  1  1
  7 51  1  0
  7 52  1  0
  8 53  1  0
  8 54  1  0
 10 55  1  0
 11 56  1  0
 12 57  1  0
 13 58  1  0
 16 59  1  1
 17 60  1  0
 17 61  1  0
 17 62  1  0
 19 63  1  0
 22 64  1  0
 28 65  1  0
 28 66  1  0
 32 67  1  0
 32 68  1  0
 33 69  1  0
 35 70  1  0
 36 71  1  0
 37 72  1  0
 38 73  1  0
 40 74  1  0
 42 75  1  0
 46 76  1  0
 49 77  1  0
 49 78  1  0
M  CHG  3   5  -1  23   1  26  -1
M  END
>  <EmbedRMS>  (189) 
0.0819617049755

$$$$

     RDKit          3D

 78 83  0  0  0  0  0  0  0  0999 V2000
   10.2838   43.7627   33.8277 C   0  0  0  0  0  0  0  0  0  0  0  0
   11.4103   43.5865   34.3767 O   0  0  0  0  0  0  0  0  0  0  0  0
    9.3631   42.7236   33.7356 O   0  0  0  0  0  0  0  0  0  0  0  0
    9.8895   41.2250   34.2948 P   0  0  0  0  0  0  0  0  0  0  0  0
   10.3720   41.4547   35.8844 O   0  0  0  0  0  0  0  0  0  0  0  0
    9.9547   45.0699   33.2062 C   0  0  1  0  0  0  0  0  0  0  0  0
   11.0196   46.0482   33.4566 N   0  0  0  0  0  0  0  0  0  0  0  0
    9.7503   44.8504   31.6921 C   0  0  0  0  0  0  0  0  0  0  0  0
    8.7944   45.8407   31.0857 C   0  0  0  0  0  0  0  0  0  0  0  0
    7.4078   45.6012   31.1004 C   0  0  0  0  0  0  0  0  0  0  0  0
    9.2829   46.9889   30.4458 C   0  0  0  0  0  0  0  0  0  0  0  0
    6.5286   46.5034   30.4864 C   0  0  0  0  0  0  0  0  0  0  0  0
    8.4034   47.8901   29.8344 C   0  0  0  0  0  0  0  0  0  0  0  0
    7.0141   47.6510   29.8438 C   0  0  0  0  0  0  0  0  0  0  0  0
    6.0768   48.5204   29.2515 O   0  0  0  0  0  0  0  0  0  0  0  0
    6.3334   49.5786   28.3129 C   0  0  2  0  0  0  0  0  0  0  0  0
    7.1463   49.0496   27.1134 C   0  0  0  0  0  0  0  0  0  0  0  0
    6.9393   50.8276   28.9595 C   0  0  0  0  0  0  0  0  0  0  0  0
    7.1783   50.8620   30.3598 C   0  0  0  0  0  0  0  0  0  0  0  0
    7.2640   51.9916   28.1804 C   0  0  0  0  0  0  0  0  0  0  0  0
    7.8002   51.9766   30.9059 C   0  0  0  0  0  0  0  0  0  0  0  0
    7.9119   53.0902   28.7899 C   0  0  0  0  0  0  0  0  0  0  0  0
    6.9083   52.0937   26.7940 N   0  0  0  0  0  0  0  0  0  0  0  0
    8.1469   52.2060   32.2236 O   0  0  0  0  0  0  0  0  0  0  0  0
    8.1609   53.0388   30.1529 C   0  0  0  0  0  0  0  0  0  0  0  0
    5.6140   51.8498   26.3976 O   0  0  0  0  0  0  0  0  0  0  0  0
    7.6954   52.6292   25.9864 O   0  0  0  0  0  0  0  0  0  0  0  0
    8.7686   53.4960   32.2993 C   0  0  0  0  0  0  0  0  0  0  0  0
    8.7560   53.9939   30.9545 O   0  0  0  0  0  0  0  0  0  0  0  0
    8.8117   40.1832   34.2124 O   0  0  0  0  0  0  0  0  0  0  0  0
   11.2411   40.7939   33.3709 O   0  0  0  0  0  0  0  0  0  0  0  0
   10.9179   40.6920   31.9985 C   0  0  0  0  0  0  0  0  0  0  0  0
   11.5175   39.3837   31.4422 C   0  0  0  0  0  0  0  0  0  0  0  0
   12.7508   39.0887   32.0751 O   0  0  0  0  0  0  0  0  0  0  0  0
   10.6028   38.1915   31.6658 C   0  0  0  0  0  0  0  0  0  0  0  0
   12.9385   37.6818   32.0278 C   0  0  0  0  0  0  0  0  0  0  0  0
    9.6371   38.0805   30.6470 O   0  0  0  0  0  0  0  0  0  0  0  0
   11.5780   37.0215   31.6934 C   0  0  0  0  0  0  0  0  0  0  0  0
   13.4844   37.2119   33.3241 N   0  0  0  0  0  0  0  0  0  0  0  0
   11.6095   36.3201   30.4678 O   0  0  0  0  0  0  0  0  0  0  0  0
   14.4797   36.3318   33.5730 C   0  0  0  0  0  0  0  0  0  0  0  0
   13.1136   37.6278   34.5691 C   0  0  0  0  0  0  0  0  0  0  0  0
   15.2073   35.6155   32.6742 N   0  0  0  0  0  0  0  0  0  0  0  0
   14.6754   36.2304   34.9184 C   0  0  0  0  0  0  0  0  0  0  0  0
   13.8213   37.0452   35.5785 N   0  0  0  0  0  0  0  0  0  0  0  0
   16.1640   34.7604   33.1549 C   0  0  0  0  0  0  0  0  0  0  0  0
   15.6524   35.3507   35.4132 C   0  0  0  0  0  0  0  0  0  0  0  0
   16.3794   34.6318   34.5044 N   0  0  0  0  0  0  0  0  0  0  0  0
   15.8999   35.1934   36.8091 N   0  0  0  0  0  0  0  0  0  0  0  0
    9.0096   45.4349   33.6665 H   0  0  0  0  0  0  0  0  0  0  0  0
   11.1130   46.1995   34.4879 H   0  0  0  0  0  0  0  0  0  0  0  0
   11.9347   45.6934   33.0924 H   0  0  0  0  0  0  0  0  0  0  0  0
    9.3514   43.8337   31.4762 H   0  0  0  0  0  0  0  0  0  0  0  0
   10.7307   44.8919   31.1674 H   0  0  0  0  0  0  0  0  0  0  0  0
    7.0109   44.7169   31.5836 H   0  0  0  0  0  0  0  0  0  0  0  0
   10.3465   47.1926   30.4254 H   0  0  0  0  0  0  0  0  0  0  0  0
    5.4641   46.3071   30.5068 H   0  0  0  0  0  0  0  0  0  0  0  0
    8.8172   48.7797   29.3865 H   0  0  0  0  0  0  0  0  0  0  0  0
    5.3370   49.8743   27.9242 H   0  0  0  0  0  0  0  0  0  0  0  0
    6.9447   47.9684   26.9586 H   0  0  0  0  0  0  0  0  0  0  0  0
    8.2362   49.1941   27.2565 H   0  0  0  0  0  0  0  0  0  0  0  0
    6.8540   49.5676   26.1780 H   0  0  0  0  0  0  0  0  0  0  0  0
    6.8983   50.0524   31.0175 H   0  0  0  0  0  0  0  0  0  0  0  0
    8.1777   53.9732   28.2228 H   0  0  0  0  0  0  0  0  0  0  0  0
    9.8134   53.3982   32.6619 H   0  0  0  0  0  0  0  0  0  0  0  0
    8.1823   54.1667   32.9618 H   0  0  0  0  0  0  0  0  0  0  0  0
   11.3955   41.5477   31.4750 H   0  0  0  0  0  0  0  0  0  0  0  0
    9.8292   40.7409   31.7624 H   0  0  0  0  0  0  0  0  0  0  0  0
   11.6981   39.5116   30.3500 H   0  0  0  0  0  0  0  0  0  0  0  0
   10.1117   38.2603   32.6660 H   0  0  0  0  0  0  0  0  0  0  0  0
   13.6767   37.4556   31.2267 H   0  0  0  0  0  0  0  0  0  0  0  0
    8.8961   38.6951   30.8872 H   0  0  0  0  0  0  0  0  0  0  0  0
   11.2792   36.3072   32.4922 H   0  0  0  0  0  0  0  0  0  0  0  0
   11.8828   36.9598   29.7588 H   0  0  0  0  0  0  0  0  0  0  0  0
   12.3300   38.3538   34.7446 H   0  0  0  0  0  0  0  0  0  0  0  0
   16.7562   34.1785   32.4622 H   0  0  0  0  0  0  0  0  0  0  0  0
   16.6347   34.5303   37.1416 H   0  0  0  0  0  0  0  0  0  0  0  0
   15.3531   35.7360   37.5140 H   0  0  0  0  0  0  0  0  0  0  0  0
  1  2  2  0
  1  3  1  0
  3  4  1  0
  4  5  1  0
  6  1  1  0
  7  6  1  0
  6  8  1  0
  8  9  1  0
  9 10  2  0
 11  9  1  0
 10 12  1  0
 13 11  2  0
 12 14  2  0
 14 13  1  0
 14 15  1  0
 15 16  1  0
 16 17  1  0
 16 18  1  0
 18 19  2  0
 20 18  1  0
 19 21  1  0
 22 20  2  0
 20 23  1  0
 21 24  1  0
 21 25  2  0
 25 22  1  0
 23 26  1  0
 23 27  2  0
 24 28  1  0
 25 29  1  0
 28 29  1  0
  4 30  2  0
  4 31  1  0
 32 31  1  0
 32 33  1  0
 33 34  1  0
 33 35  1  0
 34 36  1  0
 35 37  1  0
 35 38  1  0
 38 36  1  0
 36 39  1  0
 38 40  1  0
 41 39  1  0
 42 39  1  0
 43 41  2  0
 41 44  1  0
 45 42  2  0
 46 43  1  0
 44 47  2  0
 44 45  1  0
 48 46  2  0
 48 47  1  0
 47 49  1  0
  6 50  1  1
  7 51  1  0
  7 52  1  0
  8 53  1  0
  8 54  1  0
 10 55  1  0
 11 56  1  0
 12 57  1  0
 13 58  1  0
 16 59  1  6
 17 60  1  0
 17 61  1  0
 17 62  1  0
 19 63  1  0
 22 64  1  0
 28 65  1  0
 28 66  1  0
 32 67  1  0
 32 68  1  0
 33 69  1  0
 35 70  1  0
 36 71  1  0
 37 72  1  0
 38 73  1  0
 40 74  1  0
 42 75  1  0
 46 76  1  0
 49 77  1  0
 49 78  1  0
M  CHG  3   5  -1  23   1  26  -1
M  END
>  <EmbedRMS>  (190) 
0.0828989180526

$$$$

     RDKit          3D

 78 83  0  0  0  0  0  0  0  0999 V2000
   10.2838   43.7627   33.8278 C   0  0  0  0  0  0  0  0  0  0  0  0
   11.4103   43.5863   34.3767 O   0  0  0  0  0  0  0  0  0  0  0  0
    9.3628   42.7238   33.7358 O   0  0  0  0  0  0  0  0  0  0  0  0
    9.8893   41.2250   34.2943 P   0  0  0  0  0  0  0  0  0  0  0  0
   10.3731   41.4545   35.8837 O   0  0  0  0  0  0  0  0  0  0  0  0
    9.9548   45.0700   33.2066 C   0  0  1  0  0  0  0  0  0  0  0  0
   11.0199   46.0481   33.4569 N   0  0  0  0  0  0  0  0  0  0  0  0
    9.7500   44.8508   31.6926 C   0  0  0  0  0  0  0  0  0  0  0  0
    8.7941   45.8419   31.0874 C   0  0  0  0  0  0  0  0  0  0  0  0
    7.4076   45.6009   31.0998 C   0  0  0  0  0  0  0  0  0  0  0  0
    9.2830   46.9887   30.4447 C   0  0  0  0  0  0  0  0  0  0  0  0
    6.5284   46.5015   30.4834 C   0  0  0  0  0  0  0  0  0  0  0  0
    8.4039   47.8896   29.8315 C   0  0  0  0  0  0  0  0  0  0  0  0
    7.0138   47.6533   29.8486 C   0  0  0  0  0  0  0  0  0  0  0  0
    6.0829   48.5172   29.2477 O   0  0  0  0  0  0  0  0  0  0  0  0
    6.3724   49.7885   28.6573 C   0  0  2  0  0  0  0  0  0  0  0  0
    6.6478   50.8276   29.7500 C   0  0  0  0  0  0  0  0  0  0  0  0
    5.1863   50.2296   27.8203 C   0  0  0  0  0  0  0  0  0  0  0  0
    3.8834   50.0634   28.3526 C   0  0  0  0  0  0  0  0  0  0  0  0
    5.3391   50.7735   26.5002 C   0  0  0  0  0  0  0  0  0  0  0  0
    2.7939   50.3963   27.5588 C   0  0  0  0  0  0  0  0  0  0  0  0
    4.1914   51.0767   25.7330 C   0  0  0  0  0  0  0  0  0  0  0  0
    6.6318   51.0446   25.9359 N   0  0  0  0  0  0  0  0  0  0  0  0
    1.4494   50.3066   27.8640 O   0  0  0  0  0  0  0  0  0  0  0  0
    2.9412   50.8759   26.3026 C   0  0  0  0  0  0  0  0  0  0  0  0
    6.8379   50.8705   24.5868 O   0  0  0  0  0  0  0  0  0  0  0  0
    7.4910   51.6589   26.6009 O   0  0  0  0  0  0  0  0  0  0  0  0
    0.7059   50.7604   26.7247 C   0  0  0  0  0  0  0  0  0  0  0  0
    1.6973   51.1146   25.7507 O   0  0  0  0  0  0  0  0  0  0  0  0
    8.8113   40.1835   34.2130 O   0  0  0  0  0  0  0  0  0  0  0  0
   11.2397   40.7942   33.3684 O   0  0  0  0  0  0  0  0  0  0  0  0
   10.9125   40.6875   31.9970 C   0  0  0  0  0  0  0  0  0  0  0  0
   11.5169   39.3810   31.4420 C   0  0  0  0  0  0  0  0  0  0  0  0
   12.7500   39.0880   32.0758 O   0  0  0  0  0  0  0  0  0  0  0  0
   10.6043   38.1892   31.6658 C   0  0  0  0  0  0  0  0  0  0  0  0
   12.9395   37.6813   32.0279 C   0  0  0  0  0  0  0  0  0  0  0  0
    9.6353   38.0951   30.6499 O   0  0  0  0  0  0  0  0  0  0  0  0
   11.5804   37.0190   31.6934 C   0  0  0  0  0  0  0  0  0  0  0  0
   13.4851   37.2119   33.3244 N   0  0  0  0  0  0  0  0  0  0  0  0
   11.6118   36.3188   30.4673 O   0  0  0  0  0  0  0  0  0  0  0  0
   14.4801   36.3316   33.5732 C   0  0  0  0  0  0  0  0  0  0  0  0
   13.1139   37.6277   34.5692 C   0  0  0  0  0  0  0  0  0  0  0  0
   15.2076   35.6154   32.6744 N   0  0  0  0  0  0  0  0  0  0  0  0
   14.6756   36.2303   34.9186 C   0  0  0  0  0  0  0  0  0  0  0  0
   13.8215   37.0451   35.5786 N   0  0  0  0  0  0  0  0  0  0  0  0
   16.1642   34.7602   33.1551 C   0  0  0  0  0  0  0  0  0  0  0  0
   15.6526   35.3505   35.4134 C   0  0  0  0  0  0  0  0  0  0  0  0
   16.3796   34.6316   34.5045 N   0  0  0  0  0  0  0  0  0  0  0  0
   15.9001   35.1933   36.8093 N   0  0  0  0  0  0  0  0  0  0  0  0
    9.0099   45.4350   33.6673 H   0  0  0  0  0  0  0  0  0  0  0  0
   11.1136   46.1992   34.4882 H   0  0  0  0  0  0  0  0  0  0  0  0
   11.9348   45.6932   33.0924 H   0  0  0  0  0  0  0  0  0  0  0  0
   10.7302   44.8921   31.1677 H   0  0  0  0  0  0  0  0  0  0  0  0
    9.3506   43.8343   31.4766 H   0  0  0  0  0  0  0  0  0  0  0  0
    7.0110   44.7155   31.5813 H   0  0  0  0  0  0  0  0  0  0  0  0
   10.3476   47.1864   30.4147 H   0  0  0  0  0  0  0  0  0  0  0  0
    5.4641   46.3034   30.5003 H   0  0  0  0  0  0  0  0  0  0  0  0
    8.8221   48.7582   29.3446 H   0  0  0  0  0  0  0  0  0  0  0  0
    7.2655   49.6805   28.0110 H   0  0  0  0  0  0  0  0  0  0  0  0
    6.8311   51.8244   29.2957 H   0  0  0  0  0  0  0  0  0  0  0  0
    7.5438   50.5468   30.3398 H   0  0  0  0  0  0  0  0  0  0  0  0
    5.7825   50.9016   30.4427 H   0  0  0  0  0  0  0  0  0  0  0  0
    3.7243   49.6698   29.3487 H   0  0  0  0  0  0  0  0  0  0  0  0
    4.2729   51.4837   24.7334 H   0  0  0  0  0  0  0  0  0  0  0  0
    0.0972   51.6494   26.9925 H   0  0  0  0  0  0  0  0  0  0  0  0
    0.0618   49.9439   26.3363 H   0  0  0  0  0  0  0  0  0  0  0  0
   11.3811   41.5456   31.4692 H   0  0  0  0  0  0  0  0  0  0  0  0
    9.8216   40.7222   31.7644 H   0  0  0  0  0  0  0  0  0  0  0  0
   11.6985   39.5089   30.3498 H   0  0  0  0  0  0  0  0  0  0  0  0
   10.1109   38.2736   32.6630 H   0  0  0  0  0  0  0  0  0  0  0  0
   13.6783   37.4561   31.2271 H   0  0  0  0  0  0  0  0  0  0  0  0
    9.0020   37.3859   30.9348 H   0  0  0  0  0  0  0  0  0  0  0  0
   11.2808   36.3052   32.4921 H   0  0  0  0  0  0  0  0  0  0  0  0
   11.8819   36.9599   29.7584 H   0  0  0  0  0  0  0  0  0  0  0  0
   12.3303   38.3538   34.7445 H   0  0  0  0  0  0  0  0  0  0  0  0
   16.7564   34.1783   32.4624 H   0  0  0  0  0  0  0  0  0  0  0  0
   15.3532   35.7359   37.5142 H   0  0  0  0  0  0  0  0  0  0  0  0
   16.6348   34.5301   37.1418 H   0  0  0  0  0  0  0  0  0  0  0  0
  1  2  2  0
  1  3  1  0
  3  4  1  0
  4  5  1  0
  6  1  1  0
  7  6  1  0
  6  8  1  0
  8  9  1  0
  9 10  2  0
 11  9  1  0
 10 12  1  0
 13 11  2  0
 12 14  2  0
 14 13  1  0
 14 15  1  0
 15 16  1  0
 16 17  1  0
 16 18  1  0
 18 19  2  0
 20 18  1  0
 19 21  1  0
 22 20  2  0
 20 23  1  0
 21 24  1  0
 21 25  2  0
 25 22  1  0
 23 26  1  0
 23 27  2  0
 24 28  1  0
 25 29  1  0
 28 29  1  0
  4 30  2  0
  4 31  1  0
 32 31  1  0
 32 33  1  0
 33 34  1  0
 33 35  1  0
 34 36  1  0
 35 37  1  0
 35 38  1  0
 38 36  1  0
 36 39  1  0
 38 40  1  0
 41 39  1  0
 42 39  1  0
 43 41  2  0
 41 44  1  0
 45 42  2  0
 46 43  1  0
 44 47  2  0
 44 45  1  0
 48 46  2  0
 48 47  1  0
 47 49  1  0
  6 50  1  1
  7 51  1  0
  7 52  1  0
  8 53  1  0
  8 54  1  0
 10 55  1  0
 11 56  1  0
 12 57  1  0
 13 58  1  0
 16 59  1  6
 17 60  1  0
 17 61  1  0
 17 62  1  0
 19 63  1  0
 22 64  1  0
 28 65  1  0
 28 66  1  0
 32 67  1  0
 32 68  1  0
 33 69  1  0
 35 70  1  0
 36 71  1  0
 37 72  1  0
 38 73  1  0
 40 74  1  0
 42 75  1  0
 46 76  1  0
 49 77  1  0
 49 78  1  0
M  CHG  3   5  -1  23   1  26  -1
M  END
>  <EmbedRMS>  (191) 
0.082453281497

$$$$

     RDKit          3D

 78 83  0  0  0  0  0  0  0  0999 V2000
   10.2801   43.7664   33.8251 C   0  0  0  0  0  0  0  0  0  0  0  0
   11.4109   43.5917   34.3665 O   0  0  0  0  0  0  0  0  0  0  0  0
    9.3614   42.7250   33.7350 O   0  0  0  0  0  0  0  0  0  0  0  0
    9.8896   41.2268   34.2946 P   0  0  0  0  0  0  0  0  0  0  0  0
   10.3733   41.4567   35.8838 O   0  0  0  0  0  0  0  0  0  0  0  0
    9.9459   45.0737   33.2113 C   0  0  1  0  0  0  0  0  0  0  0  0
   11.0270   46.0289   33.4706 N   0  0  0  0  0  0  0  0  0  0  0  0
    9.7540   44.8542   31.6950 C   0  0  0  0  0  0  0  0  0  0  0  0
    8.7958   45.8410   31.0845 C   0  0  0  0  0  0  0  0  0  0  0  0
    7.4090   45.6005   31.1013 C   0  0  0  0  0  0  0  0  0  0  0  0
    9.2825   46.9878   30.4400 C   0  0  0  0  0  0  0  0  0  0  0  0
    6.5254   46.4998   30.4873 C   0  0  0  0  0  0  0  0  0  0  0  0
    8.3999   47.8872   29.8315 C   0  0  0  0  0  0  0  0  0  0  0  0
    7.0185   47.6544   29.8442 C   0  0  0  0  0  0  0  0  0  0  0  0
    6.1866   48.5962   29.2168 O   0  0  0  0  0  0  0  0  0  0  0  0
    4.7729   48.4844   29.0340 C   0  0  2  0  0  0  0  0  0  0  0  0
    4.4330   47.4549   27.9495 C   0  0  0  0  0  0  0  0  0  0  0  0
    4.1661   49.8331   28.6843 C   0  0  0  0  0  0  0  0  0  0  0  0
    2.8359   50.0752   29.1079 C   0  0  0  0  0  0  0  0  0  0  0  0
    4.8751   50.8705   27.9829 C   0  0  0  0  0  0  0  0  0  0  0  0
    2.2711   51.3184   28.8576 C   0  0  0  0  0  0  0  0  0  0  0  0
    4.2507   52.1218   27.7717 C   0  0  0  0  0  0  0  0  0  0  0  0
    6.2075   50.6811   27.4807 N   0  0  0  0  0  0  0  0  0  0  0  0
    1.0070   51.7694   29.1860 O   0  0  0  0  0  0  0  0  0  0  0  0
    2.9500   52.2997   28.2219 C   0  0  0  0  0  0  0  0  0  0  0  0
    6.5014   49.5977   26.6865 O   0  0  0  0  0  0  0  0  0  0  0  0
    7.0426   51.6052   27.5693 O   0  0  0  0  0  0  0  0  0  0  0  0
    0.8867   53.1223   28.7256 C   0  0  0  0  0  0  0  0  0  0  0  0
    2.1497   53.4211   28.1155 O   0  0  0  0  0  0  0  0  0  0  0  0
    8.8123   40.1842   34.2137 O   0  0  0  0  0  0  0  0  0  0  0  0
   11.2401   40.7950   33.3698 O   0  0  0  0  0  0  0  0  0  0  0  0
   10.9143   40.6914   31.9982 C   0  0  0  0  0  0  0  0  0  0  0  0
   11.5269   39.3912   31.4386 C   0  0  0  0  0  0  0  0  0  0  0  0
   12.7519   39.0910   32.0836 O   0  0  0  0  0  0  0  0  0  0  0  0
   10.6112   38.1931   31.6450 C   0  0  0  0  0  0  0  0  0  0  0  0
   12.9411   37.6837   32.0298 C   0  0  0  0  0  0  0  0  0  0  0  0
    9.6067   38.0875   30.6595 O   0  0  0  0  0  0  0  0  0  0  0  0
   11.5820   37.0197   31.6879 C   0  0  0  0  0  0  0  0  0  0  0  0
   13.4840   37.2105   33.3255 N   0  0  0  0  0  0  0  0  0  0  0  0
   11.6179   36.3072   30.4691 O   0  0  0  0  0  0  0  0  0  0  0  0
   14.4796   36.3310   33.5738 C   0  0  0  0  0  0  0  0  0  0  0  0
   13.1137   37.6269   34.5703 C   0  0  0  0  0  0  0  0  0  0  0  0
   15.2074   35.6155   32.6747 N   0  0  0  0  0  0  0  0  0  0  0  0
   14.6756   36.2298   34.9190 C   0  0  0  0  0  0  0  0  0  0  0  0
   13.8217   37.0445   35.5794 N   0  0  0  0  0  0  0  0  0  0  0  0
   16.1645   34.7606   33.1550 C   0  0  0  0  0  0  0  0  0  0  0  0
   15.6529   35.3503   35.4135 C   0  0  0  0  0  0  0  0  0  0  0  0
   16.3801   34.6319   34.5044 N   0  0  0  0  0  0  0  0  0  0  0  0
   15.9004   35.1928   36.8093 N   0  0  0  0  0  0  0  0  0  0  0  0
    8.9998   45.4389   33.6726 H   0  0  0  0  0  0  0  0  0  0  0  0
   10.7772   46.9365   33.0153 H   0  0  0  0  0  0  0  0  0  0  0  0
   11.0510   46.2275   34.4979 H   0  0  0  0  0  0  0  0  0  0  0  0
   10.7415   44.9083   31.1841 H   0  0  0  0  0  0  0  0  0  0  0  0
    9.3648   43.8353   31.4712 H   0  0  0  0  0  0  0  0  0  0  0  0
    7.0150   44.7168   31.5879 H   0  0  0  0  0  0  0  0  0  0  0  0
   10.3463   47.1881   30.4067 H   0  0  0  0  0  0  0  0  0  0  0  0
    5.4679   46.2833   30.5253 H   0  0  0  0  0  0  0  0  0  0  0  0
    8.7922   48.7695   29.3415 H   0  0  0  0  0  0  0  0  0  0  0  0
    4.3227   48.1505   29.9945 H   0  0  0  0  0  0  0  0  0  0  0  0
    4.8942   46.4736   28.1807 H   0  0  0  0  0  0  0  0  0  0  0  0
    4.7946   47.7847   26.9555 H   0  0  0  0  0  0  0  0  0  0  0  0
    3.3326   47.3138   27.8941 H   0  0  0  0  0  0  0  0  0  0  0  0
    2.2617   49.3192   29.6292 H   0  0  0  0  0  0  0  0  0  0  0  0
    4.7590   52.9242   27.2523 H   0  0  0  0  0  0  0  0  0  0  0  0
    0.0709   53.2021   27.9771 H   0  0  0  0  0  0  0  0  0  0  0  0
    0.7038   53.8047   29.5820 H   0  0  0  0  0  0  0  0  0  0  0  0
   11.3770   41.5550   31.4740 H   0  0  0  0  0  0  0  0  0  0  0  0
    9.8232   40.7200   31.7657 H   0  0  0  0  0  0  0  0  0  0  0  0
   11.7311   39.5363   30.3533 H   0  0  0  0  0  0  0  0  0  0  0  0
   10.1197   38.2695   32.6407 H   0  0  0  0  0  0  0  0  0  0  0  0
   13.6849   37.4637   31.2322 H   0  0  0  0  0  0  0  0  0  0  0  0
   10.0256   38.1804   29.7653 H   0  0  0  0  0  0  0  0  0  0  0  0
   11.2751   36.3136   32.4911 H   0  0  0  0  0  0  0  0  0  0  0  0
   11.9853   36.9108   29.7714 H   0  0  0  0  0  0  0  0  0  0  0  0
   12.3309   38.3538   34.7458 H   0  0  0  0  0  0  0  0  0  0  0  0
   16.7571   34.1796   32.4619 H   0  0  0  0  0  0  0  0  0  0  0  0
   15.3538   35.7355   37.5144 H   0  0  0  0  0  0  0  0  0  0  0  0
   16.6355   34.5299   37.1412 H   0  0  0  0  0  0  0  0  0  0  0  0
  1  2  2  0
  1  3  1  0
  3  4  1  0
  4  5  1  0
  6  1  1  0
  7  6  1  0
  6  8  1  0
  8  9  1  0
  9 10  2  0
 11  9  1  0
 10 12  1  0
 13 11  2  0
 12 14  2  0
 14 13  1  0
 14 15  1  0
 15 16  1  0
 16 17  1  0
 16 18  1  0
 18 19  2  0
 20 18  1  0
 19 21  1  0
 22 20  2  0
 20 23  1  0
 21 24  1  0
 21 25  2  0
 25 22  1  0
 23 26  1  0
 23 27  2  0
 24 28  1  0
 25 29  1  0
 28 29  1  0
  4 30  2  0
  4 31  1  0
 32 31  1  0
 32 33  1  0
 33 34  1  0
 33 35  1  0
 34 36  1  0
 35 37  1  0
 35 38  1  0
 38 36  1  0
 36 39  1  0
 38 40  1  0
 41 39  1  0
 42 39  1  0
 43 41  2  0
 41 44  1  0
 45 42  2  0
 46 43  1  0
 44 47  2  0
 44 45  1  0
 48 46  2  0
 48 47  1  0
 47 49  1  0
  6 50  1  1
  7 51  1  0
  7 52  1  0
  8 53  1  0
  8 54  1  0
 10 55  1  0
 11 56  1  0
 12 57  1  0
 13 58  1  0
 16 59  1  1
 17 60  1  0
 17 61  1  0
 17 62  1  0
 19 63  1  0
 22 64  1  0
 28 65  1  0
 28 66  1  0
 32 67  1  0
 32 68  1  0
 33 69  1  0
 35 70  1  0
 36 71  1  0
 37 72  1  0
 38 73  1  0
 40 74  1  0
 42 75  1  0
 46 76  1  0
 49 77  1  0
 49 78  1  0
M  CHG  3   5  -1  23   1  26  -1
M  END
>  <EmbedRMS>  (192) 
0.0806258765256

$$$$

     RDKit          3D

 78 83  0  0  0  0  0  0  0  0999 V2000
   10.2838   43.7627   33.8276 C   0  0  0  0  0  0  0  0  0  0  0  0
   11.4103   43.5863   34.3766 O   0  0  0  0  0  0  0  0  0  0  0  0
    9.3630   42.7237   33.7354 O   0  0  0  0  0  0  0  0  0  0  0  0
    9.8893   41.2250   34.2943 P   0  0  0  0  0  0  0  0  0  0  0  0
   10.3727   41.4546   35.8837 O   0  0  0  0  0  0  0  0  0  0  0  0
    9.9548   45.0701   33.2064 C   0  0  1  0  0  0  0  0  0  0  0  0
   11.0197   46.0482   33.4572 N   0  0  0  0  0  0  0  0  0  0  0  0
    9.7506   44.8512   31.6923 C   0  0  0  0  0  0  0  0  0  0  0  0
    8.7944   45.8420   31.0870 C   0  0  0  0  0  0  0  0  0  0  0  0
    7.4077   45.6002   31.1001 C   0  0  0  0  0  0  0  0  0  0  0  0
    9.2827   46.9890   30.4439 C   0  0  0  0  0  0  0  0  0  0  0  0
    6.5259   46.4991   30.4845 C   0  0  0  0  0  0  0  0  0  0  0  0
    8.4010   47.8879   29.8324 C   0  0  0  0  0  0  0  0  0  0  0  0
    7.0192   47.6565   29.8478 C   0  0  0  0  0  0  0  0  0  0  0  0
    6.1811   48.5957   29.2246 O   0  0  0  0  0  0  0  0  0  0  0  0
    4.7512   48.5596   29.2313 C   0  0  2  0  0  0  0  0  0  0  0  0
    4.2284   49.6220   28.2662 C   0  0  0  0  0  0  0  0  0  0  0  0
    4.2168   48.8202   30.6299 C   0  0  0  0  0  0  0  0  0  0  0  0
    4.8100   49.8515   31.3989 C   0  0  0  0  0  0  0  0  0  0  0  0
    3.1750   48.0229   31.2110 C   0  0  0  0  0  0  0  0  0  0  0  0
    4.3872   50.0289   32.7094 C   0  0  0  0  0  0  0  0  0  0  0  0
    2.7984   48.2393   32.5557 C   0  0  0  0  0  0  0  0  0  0  0  0
    2.4865   47.0115   30.4593 N   0  0  0  0  0  0  0  0  0  0  0  0
    4.8300   50.9517   33.6374 O   0  0  0  0  0  0  0  0  0  0  0  0
    3.4280   49.2535   33.2651 C   0  0  0  0  0  0  0  0  0  0  0  0
    2.0757   45.8568   31.0844 O   0  0  0  0  0  0  0  0  0  0  0  0
    2.0524   47.2642   29.3167 O   0  0  0  0  0  0  0  0  0  0  0  0
    4.0999   50.7411   34.8536 C   0  0  0  0  0  0  0  0  0  0  0  0
    3.2153   49.6479   34.5720 O   0  0  0  0  0  0  0  0  0  0  0  0
    8.8113   40.1834   34.2130 O   0  0  0  0  0  0  0  0  0  0  0  0
   11.2399   40.7932   33.3693 O   0  0  0  0  0  0  0  0  0  0  0  0
   10.9143   40.6896   31.9973 C   0  0  0  0  0  0  0  0  0  0  0  0
   11.5260   39.3884   31.4375 C   0  0  0  0  0  0  0  0  0  0  0  0
   12.7504   39.0887   32.0815 O   0  0  0  0  0  0  0  0  0  0  0  0
   10.6115   38.1909   31.6460 C   0  0  0  0  0  0  0  0  0  0  0  0
   12.9357   37.6812   32.0303 C   0  0  0  0  0  0  0  0  0  0  0  0
    9.6145   38.0858   30.6533 O   0  0  0  0  0  0  0  0  0  0  0  0
   11.5769   37.0148   31.7012 C   0  0  0  0  0  0  0  0  0  0  0  0
   13.4849   37.2112   33.3247 N   0  0  0  0  0  0  0  0  0  0  0  0
   11.6193   36.3260   30.4724 O   0  0  0  0  0  0  0  0  0  0  0  0
   14.4802   36.3313   33.5730 C   0  0  0  0  0  0  0  0  0  0  0  0
   13.1141   37.6268   34.5697 C   0  0  0  0  0  0  0  0  0  0  0  0
   15.2075   35.6151   32.6741 N   0  0  0  0  0  0  0  0  0  0  0  0
   14.6761   36.2300   34.9184 C   0  0  0  0  0  0  0  0  0  0  0  0
   13.8220   37.0445   35.5789 N   0  0  0  0  0  0  0  0  0  0  0  0
   16.1642   34.7600   33.1547 C   0  0  0  0  0  0  0  0  0  0  0  0
   15.6529   35.3503   35.4132 C   0  0  0  0  0  0  0  0  0  0  0  0
   16.3797   34.6314   34.5042 N   0  0  0  0  0  0  0  0  0  0  0  0
   15.9004   35.1930   36.8090 N   0  0  0  0  0  0  0  0  0  0  0  0
    9.0097   45.4349   33.6670 H   0  0  0  0  0  0  0  0  0  0  0  0
   11.9348   45.6935   33.0930 H   0  0  0  0  0  0  0  0  0  0  0  0
   11.1130   46.1994   34.4885 H   0  0  0  0  0  0  0  0  0  0  0  0
   10.7310   44.8933   31.1677 H   0  0  0  0  0  0  0  0  0  0  0  0
    9.3519   43.8346   31.4758 H   0  0  0  0  0  0  0  0  0  0  0  0
    7.0127   44.7140   31.5815 H   0  0  0  0  0  0  0  0  0  0  0  0
   10.3467   47.1891   30.4141 H   0  0  0  0  0  0  0  0  0  0  0  0
    5.4683   46.2798   30.5092 H   0  0  0  0  0  0  0  0  0  0  0  0
    8.7936   48.7708   29.3441 H   0  0  0  0  0  0  0  0  0  0  0  0
    4.4307   47.5704   28.8450 H   0  0  0  0  0  0  0  0  0  0  0  0
    4.5816   50.6317   28.5664 H   0  0  0  0  0  0  0  0  0  0  0  0
    4.5964   49.4095   27.2400 H   0  0  0  0  0  0  0  0  0  0  0  0
    3.1178   49.6171   28.2502 H   0  0  0  0  0  0  0  0  0  0  0  0
    5.5937   50.4798   30.9946 H   0  0  0  0  0  0  0  0  0  0  0  0
    2.0205   47.6509   33.0251 H   0  0  0  0  0  0  0  0  0  0  0  0
    3.5163   51.6491   35.1134 H   0  0  0  0  0  0  0  0  0  0  0  0
    4.7942   50.4699   35.6764 H   0  0  0  0  0  0  0  0  0  0  0  0
    9.8234   40.7192   31.7644 H   0  0  0  0  0  0  0  0  0  0  0  0
   11.3782   41.5525   31.4733 H   0  0  0  0  0  0  0  0  0  0  0  0
   11.7282   39.5312   30.3515 H   0  0  0  0  0  0  0  0  0  0  0  0
   10.1127   38.2733   32.6376 H   0  0  0  0  0  0  0  0  0  0  0  0
   13.6693   37.4565   31.2242 H   0  0  0  0  0  0  0  0  0  0  0  0
   10.0533   38.1117   29.7635 H   0  0  0  0  0  0  0  0  0  0  0  0
   11.2607   36.3147   32.5101 H   0  0  0  0  0  0  0  0  0  0  0  0
   12.1496   35.5022   30.6323 H   0  0  0  0  0  0  0  0  0  0  0  0
   12.3301   38.3524   34.7455 H   0  0  0  0  0  0  0  0  0  0  0  0
   16.7563   34.1780   32.4619 H   0  0  0  0  0  0  0  0  0  0  0  0
   15.3535   35.7357   37.5139 H   0  0  0  0  0  0  0  0  0  0  0  0
   16.6350   34.5298   37.1416 H   0  0  0  0  0  0  0  0  0  0  0  0
  1  2  2  0
  1  3  1  0
  3  4  1  0
  4  5  1  0
  6  1  1  0
  7  6  1  0
  6  8  1  0
  8  9  1  0
  9 10  2  0
 11  9  1  0
 10 12  1  0
 13 11  2  0
 12 14  2  0
 14 13  1  0
 14 15  1  0
 15 16  1  0
 16 17  1  0
 16 18  1  0
 18 19  2  0
 20 18  1  0
 19 21  1  0
 22 20  2  0
 20 23  1  0
 21 24  1  0
 21 25  2  0
 25 22  1  0
 23 26  1  0
 23 27  2  0
 24 28  1  0
 25 29  1  0
 28 29  1  0
  4 30  2  0
  4 31  1  0
 32 31  1  0
 32 33  1  0
 33 34  1  0
 33 35  1  0
 34 36  1  0
 35 37  1  0
 35 38  1  0
 38 36  1  0
 36 39  1  0
 38 40  1  0
 41 39  1  0
 42 39  1  0
 43 41  2  0
 41 44  1  0
 45 42  2  0
 46 43  1  0
 44 47  2  0
 44 45  1  0
 48 46  2  0
 48 47  1  0
 47 49  1  0
  6 50  1  1
  7 51  1  0
  7 52  1  0
  8 53  1  0
  8 54  1  0
 10 55  1  0
 11 56  1  0
 12 57  1  0
 13 58  1  0
 16 59  1  6
 17 60  1  0
 17 61  1  0
 17 62  1  0
 19 63  1  0
 22 64  1  0
 28 65  1  0
 28 66  1  0
 32 67  1  0
 32 68  1  0
 33 69  1  0
 35 70  1  0
 36 71  1  0
 37 72  1  0
 38 73  1  0
 40 74  1  0
 42 75  1  0
 46 76  1  0
 49 77  1  0
 49 78  1  0
M  CHG  3   5  -1  23   1  26  -1
M  END
>  <EmbedRMS>  (193) 
0.0825118343376

$$$$

     RDKit          3D

 78 83  0  0  0  0  0  0  0  0999 V2000
   10.2841   43.7625   33.8276 C   0  0  0  0  0  0  0  0  0  0  0  0
   11.4105   43.5862   34.3767 O   0  0  0  0  0  0  0  0  0  0  0  0
    9.3634   42.7234   33.7351 O   0  0  0  0  0  0  0  0  0  0  0  0
    9.8899   41.2246   34.2940 P   0  0  0  0  0  0  0  0  0  0  0  0
   10.3723   41.4544   35.8837 O   0  0  0  0  0  0  0  0  0  0  0  0
    9.9550   45.0699   33.2067 C   0  0  1  0  0  0  0  0  0  0  0  0
   11.0199   46.0481   33.4574 N   0  0  0  0  0  0  0  0  0  0  0  0
    9.7505   44.8514   31.6926 C   0  0  0  0  0  0  0  0  0  0  0  0
    8.7944   45.8426   31.0883 C   0  0  0  0  0  0  0  0  0  0  0  0
    7.4082   45.6003   31.0995 C   0  0  0  0  0  0  0  0  0  0  0  0
    9.2825   46.9887   30.4443 C   0  0  0  0  0  0  0  0  0  0  0  0
    6.5265   46.4989   30.4835 C   0  0  0  0  0  0  0  0  0  0  0  0
    8.4007   47.8863   29.8313 C   0  0  0  0  0  0  0  0  0  0  0  0
    7.0180   47.6582   29.8484 C   0  0  0  0  0  0  0  0  0  0  0  0
    6.1873   48.5991   29.2082 O   0  0  0  0  0  0  0  0  0  0  0  0
    4.7621   48.7398   29.3337 C   0  0  2  0  0  0  0  0  0  0  0  0
    4.3579   48.8414   30.8190 C   0  0  0  0  0  0  0  0  0  0  0  0
    3.9778   47.6769   28.5588 C   0  0  0  0  0  0  0  0  0  0  0  0
    4.6670   46.6822   27.8140 C   0  0  0  0  0  0  0  0  0  0  0  0
    2.5393   47.6647   28.5506 C   0  0  0  0  0  0  0  0  0  0  0  0
    3.9316   45.6848   27.1881 C   0  0  0  0  0  0  0  0  0  0  0  0
    1.8466   46.6124   27.9113 C   0  0  0  0  0  0  0  0  0  0  0  0
    1.7692   48.7194   29.1450 N   0  0  0  0  0  0  0  0  0  0  0  0
    4.3944   44.6179   26.4421 O   0  0  0  0  0  0  0  0  0  0  0  0
    2.5823   45.6451   27.2437 C   0  0  0  0  0  0  0  0  0  0  0  0
    0.5966   48.4222   29.8003 O   0  0  0  0  0  0  0  0  0  0  0  0
    2.0148   49.9094   28.8601 O   0  0  0  0  0  0  0  0  0  0  0  0
    3.2593   43.8585   26.0046 C   0  0  0  0  0  0  0  0  0  0  0  0
    2.1219   44.5503   26.5377 O   0  0  0  0  0  0  0  0  0  0  0  0
    8.8119   40.1831   34.2120 O   0  0  0  0  0  0  0  0  0  0  0  0
   11.2416   40.7932   33.3699 O   0  0  0  0  0  0  0  0  0  0  0  0
   10.9186   40.6909   31.9972 C   0  0  0  0  0  0  0  0  0  0  0  0
   11.5172   39.3814   31.4407 C   0  0  0  0  0  0  0  0  0  0  0  0
   12.7493   39.0855   32.0727 O   0  0  0  0  0  0  0  0  0  0  0  0
   10.6023   38.1907   31.6665 C   0  0  0  0  0  0  0  0  0  0  0  0
   12.9319   37.6781   32.0281 C   0  0  0  0  0  0  0  0  0  0  0  0
    9.6392   38.0797   30.6452 O   0  0  0  0  0  0  0  0  0  0  0  0
   11.5715   37.0165   31.7056 C   0  0  0  0  0  0  0  0  0  0  0  0
   13.4846   37.2121   33.3235 N   0  0  0  0  0  0  0  0  0  0  0  0
   11.6187   36.3383   30.4694 O   0  0  0  0  0  0  0  0  0  0  0  0
   14.4801   36.3321   33.5724 C   0  0  0  0  0  0  0  0  0  0  0  0
   13.1137   37.6276   34.5687 C   0  0  0  0  0  0  0  0  0  0  0  0
   15.2073   35.6153   32.6738 N   0  0  0  0  0  0  0  0  0  0  0  0
   14.6759   36.2308   34.9179 C   0  0  0  0  0  0  0  0  0  0  0  0
   13.8216   37.0452   35.5781 N   0  0  0  0  0  0  0  0  0  0  0  0
   16.1640   34.7602   33.1546 C   0  0  0  0  0  0  0  0  0  0  0  0
   15.6526   35.3508   35.4129 C   0  0  0  0  0  0  0  0  0  0  0  0
   16.3794   34.6317   34.5041 N   0  0  0  0  0  0  0  0  0  0  0  0
   15.8999   35.1935   36.8088 N   0  0  0  0  0  0  0  0  0  0  0  0
    9.0100   45.4346   33.6675 H   0  0  0  0  0  0  0  0  0  0  0  0
   11.1134   46.1991   34.4887 H   0  0  0  0  0  0  0  0  0  0  0  0
   11.9350   45.6933   33.0930 H   0  0  0  0  0  0  0  0  0  0  0  0
    9.3516   43.8348   31.4760 H   0  0  0  0  0  0  0  0  0  0  0  0
   10.7308   44.8935   31.1678 H   0  0  0  0  0  0  0  0  0  0  0  0
    7.0137   44.7098   31.5736 H   0  0  0  0  0  0  0  0  0  0  0  0
   10.3466   47.1883   30.4132 H   0  0  0  0  0  0  0  0  0  0  0  0
    5.4747   46.2601   30.4822 H   0  0  0  0  0  0  0  0  0  0  0  0
    8.7945   48.7668   29.3396 H   0  0  0  0  0  0  0  0  0  0  0  0
    4.5215   49.7165   28.8648 H   0  0  0  0  0  0  0  0  0  0  0  0
    4.0876   47.8531   31.2425 H   0  0  0  0  0  0  0  0  0  0  0  0
    5.1895   49.2727   31.4157 H   0  0  0  0  0  0  0  0  0  0  0  0
    3.4875   49.5156   30.9474 H   0  0  0  0  0  0  0  0  0  0  0  0
    5.7426   46.6685   27.7181 H   0  0  0  0  0  0  0  0  0  0  0  0
    0.7650   46.5732   27.9025 H   0  0  0  0  0  0  0  0  0  0  0  0
    3.3066   42.8272   26.4129 H   0  0  0  0  0  0  0  0  0  0  0  0
    3.2126   43.8420   24.8956 H   0  0  0  0  0  0  0  0  0  0  0  0
    9.8300   40.7410   31.7610 H   0  0  0  0  0  0  0  0  0  0  0  0
   11.3972   41.5459   31.4735 H   0  0  0  0  0  0  0  0  0  0  0  0
   11.6974   39.5067   30.3480 H   0  0  0  0  0  0  0  0  0  0  0  0
   10.1076   38.2647   32.6645 H   0  0  0  0  0  0  0  0  0  0  0  0
   13.6621   37.4467   31.2208 H   0  0  0  0  0  0  0  0  0  0  0  0
    8.8975   38.6944   30.8830 H   0  0  0  0  0  0  0  0  0  0  0  0
   11.2806   36.3073   32.5170 H   0  0  0  0  0  0  0  0  0  0  0  0
   10.8492   35.7110   30.4585 H   0  0  0  0  0  0  0  0  0  0  0  0
   12.3290   38.3524   34.7444 H   0  0  0  0  0  0  0  0  0  0  0  0
   16.7559   34.1780   32.4619 H   0  0  0  0  0  0  0  0  0  0  0  0
   15.3531   35.7363   37.5137 H   0  0  0  0  0  0  0  0  0  0  0  0
   16.6344   34.5301   37.1414 H   0  0  0  0  0  0  0  0  0  0  0  0
  1  2  2  0
  1  3  1  0
  3  4  1  0
  4  5  1  0
  6  1  1  0
  7  6  1  0
  6  8  1  0
  8  9  1  0
  9 10  2  0
 11  9  1  0
 10 12  1  0
 13 11  2  0
 12 14  2  0
 14 13  1  0
 14 15  1  0
 15 16  1  0
 16 17  1  0
 16 18  1  0
 18 19  2  0
 20 18  1  0
 19 21  1  0
 22 20  2  0
 20 23  1  0
 21 24  1  0
 21 25  2  0
 25 22  1  0
 23 26  1  0
 23 27  2  0
 24 28  1  0
 25 29  1  0
 28 29  1  0
  4 30  2  0
  4 31  1  0
 32 31  1  0
 32 33  1  0
 33 34  1  0
 33 35  1  0
 34 36  1  0
 35 37  1  0
 35 38  1  0
 38 36  1  0
 36 39  1  0
 38 40  1  0
 41 39  1  0
 42 39  1  0
 43 41  2  0
 41 44  1  0
 45 42  2  0
 46 43  1  0
 44 47  2  0
 44 45  1  0
 48 46  2  0
 48 47  1  0
 47 49  1  0
  6 50  1  1
  7 51  1  0
  7 52  1  0
  8 53  1  0
  8 54  1  0
 10 55  1  0
 11 56  1  0
 12 57  1  0
 13 58  1  0
 16 59  1  6
 17 60  1  0
 17 61  1  0
 17 62  1  0
 19 63  1  0
 22 64  1  0
 28 65  1  0
 28 66  1  0
 32 67  1  0
 32 68  1  0
 33 69  1  0
 35 70  1  0
 36 71  1  0
 37 72  1  0
 38 73  1  0
 40 74  1  0
 42 75  1  0
 46 76  1  0
 49 77  1  0
 49 78  1  0
M  CHG  3   5  -1  23   1  26  -1
M  END
>  <EmbedRMS>  (194) 
0.0837946057781

$$$$

     RDKit          3D

 78 83  0  0  0  0  0  0  0  0999 V2000
   10.2834   43.7662   33.8257 C   0  0  0  0  0  0  0  0  0  0  0  0
   11.4102   43.5930   34.3752 O   0  0  0  0  0  0  0  0  0  0  0  0
    9.3635   42.7257   33.7352 O   0  0  0  0  0  0  0  0  0  0  0  0
    9.8899   41.2270   34.2948 P   0  0  0  0  0  0  0  0  0  0  0  0
   10.3732   41.4562   35.8841 O   0  0  0  0  0  0  0  0  0  0  0  0
    9.9546   45.0695   33.2035 C   0  0  1  0  0  0  0  0  0  0  0  0
   11.0274   46.0321   33.4755 N   0  0  0  0  0  0  0  0  0  0  0  0
    9.7465   44.8480   31.6876 C   0  0  0  0  0  0  0  0  0  0  0  0
    8.7923   45.8408   31.0844 C   0  0  0  0  0  0  0  0  0  0  0  0
    7.4055   45.6018   31.0993 C   0  0  0  0  0  0  0  0  0  0  0  0
    9.2823   46.9879   30.4426 C   0  0  0  0  0  0  0  0  0  0  0  0
    6.5267   46.5034   30.4843 C   0  0  0  0  0  0  0  0  0  0  0  0
    8.4033   47.8903   29.8323 C   0  0  0  0  0  0  0  0  0  0  0  0
    7.0141   47.6520   29.8462 C   0  0  0  0  0  0  0  0  0  0  0  0
    6.0890   48.5164   29.2375 O   0  0  0  0  0  0  0  0  0  0  0  0
    6.4212   49.6931   28.4972 C   0  0  2  0  0  0  0  0  0  0  0  0
    5.1594   50.5135   28.2320 C   0  0  0  0  0  0  0  0  0  0  0  0
    7.1355   49.3744   27.1916 C   0  0  0  0  0  0  0  0  0  0  0  0
    8.0832   50.3189   26.7278 C   0  0  0  0  0  0  0  0  0  0  0  0
    6.9329   48.1621   26.4442 C   0  0  0  0  0  0  0  0  0  0  0  0
    8.8061   50.0296   25.5787 C   0  0  0  0  0  0  0  0  0  0  0  0
    7.7112   47.9177   25.2892 C   0  0  0  0  0  0  0  0  0  0  0  0
    5.9660   47.1749   26.8354 N   0  0  0  0  0  0  0  0  0  0  0  0
    9.7761   50.7938   24.9590 O   0  0  0  0  0  0  0  0  0  0  0  0
    8.6309   48.8781   24.8921 C   0  0  0  0  0  0  0  0  0  0  0  0
    4.6651   47.5386   27.0905 O   0  0  0  0  0  0  0  0  0  0  0  0
    6.2434   45.9614   26.7408 O   0  0  0  0  0  0  0  0  0  0  0  0
   10.2382   50.0735   23.8082 C   0  0  0  0  0  0  0  0  0  0  0  0
    9.4806   48.8558   23.8029 O   0  0  0  0  0  0  0  0  0  0  0  0
    8.8120   40.1850   34.2133 O   0  0  0  0  0  0  0  0  0  0  0  0
   11.2403   40.7947   33.3700 O   0  0  0  0  0  0  0  0  0  0  0  0
   10.9144   40.6914   31.9982 C   0  0  0  0  0  0  0  0  0  0  0  0
   11.5270   39.3912   31.4385 C   0  0  0  0  0  0  0  0  0  0  0  0
   12.7520   39.0911   32.0836 O   0  0  0  0  0  0  0  0  0  0  0  0
   10.6113   38.1932   31.6451 C   0  0  0  0  0  0  0  0  0  0  0  0
   12.9413   37.6838   32.0297 C   0  0  0  0  0  0  0  0  0  0  0  0
    9.6064   38.0878   30.6599 O   0  0  0  0  0  0  0  0  0  0  0  0
   11.5822   37.0197   31.6877 C   0  0  0  0  0  0  0  0  0  0  0  0
   13.4840   37.2104   33.3254 N   0  0  0  0  0  0  0  0  0  0  0  0
   11.6179   36.3072   30.4690 O   0  0  0  0  0  0  0  0  0  0  0  0
   14.4797   36.3309   33.5738 C   0  0  0  0  0  0  0  0  0  0  0  0
   13.1136   37.6269   34.5702 C   0  0  0  0  0  0  0  0  0  0  0  0
   15.2074   35.6152   32.6747 N   0  0  0  0  0  0  0  0  0  0  0  0
   14.6756   36.2298   34.9190 C   0  0  0  0  0  0  0  0  0  0  0  0
   13.8217   37.0445   35.5793 N   0  0  0  0  0  0  0  0  0  0  0  0
   16.1643   34.7603   33.1551 C   0  0  0  0  0  0  0  0  0  0  0  0
   15.6528   35.3503   35.4136 C   0  0  0  0  0  0  0  0  0  0  0  0
   16.3798   34.6316   34.5046 N   0  0  0  0  0  0  0  0  0  0  0  0
   15.9004   35.1930   36.8094 N   0  0  0  0  0  0  0  0  0  0  0  0
    9.0121   45.4318   33.6713 H   0  0  0  0  0  0  0  0  0  0  0  0
   10.7260   46.9687   33.1211 H   0  0  0  0  0  0  0  0  0  0  0  0
   11.8906   45.7658   32.9468 H   0  0  0  0  0  0  0  0  0  0  0  0
    9.3413   43.8329   31.4762 H   0  0  0  0  0  0  0  0  0  0  0  0
   10.7229   44.8813   31.1555 H   0  0  0  0  0  0  0  0  0  0  0  0
    7.0083   44.7167   31.5809 H   0  0  0  0  0  0  0  0  0  0  0  0
   10.3469   47.1848   30.4118 H   0  0  0  0  0  0  0  0  0  0  0  0
    5.4624   46.3058   30.4993 H   0  0  0  0  0  0  0  0  0  0  0  0
    8.8174   48.7640   29.3497 H   0  0  0  0  0  0  0  0  0  0  0  0
    7.0765   50.3246   29.1386 H   0  0  0  0  0  0  0  0  0  0  0  0
    5.4283   51.4845   27.7636 H   0  0  0  0  0  0  0  0  0  0  0  0
    4.4618   49.9784   27.5576 H   0  0  0  0  0  0  0  0  0  0  0  0
    4.6384   50.7207   29.1908 H   0  0  0  0  0  0  0  0  0  0  0  0
    8.2622   51.2464   27.2572 H   0  0  0  0  0  0  0  0  0  0  0  0
    7.5879   47.0123   24.7086 H   0  0  0  0  0  0  0  0  0  0  0  0
   10.0357   50.6548   22.8844 H   0  0  0  0  0  0  0  0  0  0  0  0
   11.3215   49.8504   23.9042 H   0  0  0  0  0  0  0  0  0  0  0  0
    9.8234   40.7201   31.7654 H   0  0  0  0  0  0  0  0  0  0  0  0
   11.3777   41.5549   31.4744 H   0  0  0  0  0  0  0  0  0  0  0  0
   11.7311   39.5363   30.3532 H   0  0  0  0  0  0  0  0  0  0  0  0
   10.1203   38.2696   32.6410 H   0  0  0  0  0  0  0  0  0  0  0  0
   13.6850   37.4638   31.2321 H   0  0  0  0  0  0  0  0  0  0  0  0
   10.0250   38.1793   29.7654 H   0  0  0  0  0  0  0  0  0  0  0  0
   11.2757   36.3135   32.4907 H   0  0  0  0  0  0  0  0  0  0  0  0
   11.9838   36.9111   29.7708 H   0  0  0  0  0  0  0  0  0  0  0  0
   12.3307   38.3536   34.7457 H   0  0  0  0  0  0  0  0  0  0  0  0
   16.7566   34.1787   32.4623 H   0  0  0  0  0  0  0  0  0  0  0  0
   15.3535   35.7355   37.5144 H   0  0  0  0  0  0  0  0  0  0  0  0
   16.6353   34.5301   37.1419 H   0  0  0  0  0  0  0  0  0  0  0  0
  1  2  2  0
  1  3  1  0
  3  4  1  0
  4  5  1  0
  6  1  1  0
  7  6  1  0
  6  8  1  0
  8  9  1  0
  9 10  2  0
 11  9  1  0
 10 12  1  0
 13 11  2  0
 12 14  2  0
 14 13  1  0
 14 15  1  0
 15 16  1  0
 16 17  1  0
 16 18  1  0
 18 19  2  0
 20 18  1  0
 19 21  1  0
 22 20  2  0
 20 23  1  0
 21 24  1  0
 21 25  2  0
 25 22  1  0
 23 26  1  0
 23 27  2  0
 24 28  1  0
 25 29  1  0
 28 29  1  0
  4 30  2  0
  4 31  1  0
 32 31  1  0
 32 33  1  0
 33 34  1  0
 33 35  1  0
 34 36  1  0
 35 37  1  0
 35 38  1  0
 38 36  1  0
 36 39  1  0
 38 40  1  0
 41 39  1  0
 42 39  1  0
 43 41  2  0
 41 44  1  0
 45 42  2  0
 46 43  1  0
 44 47  2  0
 44 45  1  0
 48 46  2  0
 48 47  1  0
 47 49  1  0
  6 50  1  1
  7 51  1  0
  7 52  1  0
  8 53  1  0
  8 54  1  0
 10 55  1  0
 11 56  1  0
 12 57  1  0
 13 58  1  0
 16 59  1  1
 17 60  1  0
 17 61  1  0
 17 62  1  0
 19 63  1  0
 22 64  1  0
 28 65  1  0
 28 66  1  0
 32 67  1  0
 32 68  1  0
 33 69  1  0
 35 70  1  0
 36 71  1  0
 37 72  1  0
 38 73  1  0
 40 74  1  0
 42 75  1  0
 46 76  1  0
 49 77  1  0
 49 78  1  0
M  CHG  3   5  -1  23   1  26  -1
M  END
>  <EmbedRMS>  (195) 
0.0808407349082

$$$$

     RDKit          3D

 78 83  0  0  0  0  0  0  0  0999 V2000
   10.2838   43.7627   33.8277 C   0  0  0  0  0  0  0  0  0  0  0  0
   11.4103   43.5863   34.3766 O   0  0  0  0  0  0  0  0  0  0  0  0
    9.3628   42.7238   33.7357 O   0  0  0  0  0  0  0  0  0  0  0  0
    9.8890   41.2252   34.2949 P   0  0  0  0  0  0  0  0  0  0  0  0
   10.3723   41.4548   35.8843 O   0  0  0  0  0  0  0  0  0  0  0  0
    9.9549   45.0701   33.2065 C   0  0  1  0  0  0  0  0  0  0  0  0
   11.0198   46.0482   33.4573 N   0  0  0  0  0  0  0  0  0  0  0  0
    9.7506   44.8513   31.6924 C   0  0  0  0  0  0  0  0  0  0  0  0
    8.7945   45.8421   31.0873 C   0  0  0  0  0  0  0  0  0  0  0  0
    7.4079   45.6003   31.0998 C   0  0  0  0  0  0  0  0  0  0  0  0
    9.2827   46.9888   30.4439 C   0  0  0  0  0  0  0  0  0  0  0  0
    6.5260   46.4992   30.4840 C   0  0  0  0  0  0  0  0  0  0  0  0
    8.4009   47.8872   29.8320 C   0  0  0  0  0  0  0  0  0  0  0  0
    7.0188   47.6569   29.8484 C   0  0  0  0  0  0  0  0  0  0  0  0
    6.1831   48.5969   29.2233 O   0  0  0  0  0  0  0  0  0  0  0  0
    4.7556   48.6008   29.2675 C   0  0  2  0  0  0  0  0  0  0  0  0
    4.2155   49.6022   28.2459 C   0  0  0  0  0  0  0  0  0  0  0  0
    4.2414   48.9136   30.6666 C   0  0  0  0  0  0  0  0  0  0  0  0
    3.3550   47.9853   31.2670 C   0  0  0  0  0  0  0  0  0  0  0  0
    4.5640   50.1243   31.3724 C   0  0  0  0  0  0  0  0  0  0  0  0
    2.8311   48.2765   32.5193 C   0  0  0  0  0  0  0  0  0  0  0  0
    3.9861   50.3726   32.6371 C   0  0  0  0  0  0  0  0  0  0  0  0
    5.4382   51.1193   30.8228 N   0  0  0  0  0  0  0  0  0  0  0  0
    1.9610   47.5221   33.2827 O   0  0  0  0  0  0  0  0  0  0  0  0
    3.1321   49.4200   33.1747 C   0  0  0  0  0  0  0  0  0  0  0  0
    5.0797   52.4455   30.8939 O   0  0  0  0  0  0  0  0  0  0  0  0
    6.6190   50.8312   30.5437 O   0  0  0  0  0  0  0  0  0  0  0  0
    1.7017   48.2400   34.4969 C   0  0  0  0  0  0  0  0  0  0  0  0
    2.4688   49.4466   34.3864 O   0  0  0  0  0  0  0  0  0  0  0  0
    8.8112   40.1834   34.2131 O   0  0  0  0  0  0  0  0  0  0  0  0
   11.2398   40.7938   33.3702 O   0  0  0  0  0  0  0  0  0  0  0  0
   10.9144   40.6912   31.9983 C   0  0  0  0  0  0  0  0  0  0  0  0
   11.5270   39.3911   31.4385 C   0  0  0  0  0  0  0  0  0  0  0  0
   12.7520   39.0911   32.0836 O   0  0  0  0  0  0  0  0  0  0  0  0
   10.6114   38.1931   31.6451 C   0  0  0  0  0  0  0  0  0  0  0  0
   12.9413   37.6837   32.0297 C   0  0  0  0  0  0  0  0  0  0  0  0
    9.6064   38.0877   30.6599 O   0  0  0  0  0  0  0  0  0  0  0  0
   11.5822   37.0197   31.6876 C   0  0  0  0  0  0  0  0  0  0  0  0
   13.4840   37.2104   33.3254 N   0  0  0  0  0  0  0  0  0  0  0  0
   11.6179   36.3071   30.4690 O   0  0  0  0  0  0  0  0  0  0  0  0
   14.4797   36.3309   33.5738 C   0  0  0  0  0  0  0  0  0  0  0  0
   13.1136   37.6269   34.5702 C   0  0  0  0  0  0  0  0  0  0  0  0
   15.2074   35.6152   32.6747 N   0  0  0  0  0  0  0  0  0  0  0  0
   14.6756   36.2298   34.9190 C   0  0  0  0  0  0  0  0  0  0  0  0
   13.8217   37.0445   35.5793 N   0  0  0  0  0  0  0  0  0  0  0  0
   16.1643   34.7603   33.1551 C   0  0  0  0  0  0  0  0  0  0  0  0
   15.6528   35.3503   35.4136 C   0  0  0  0  0  0  0  0  0  0  0  0
   16.3798   34.6316   34.5046 N   0  0  0  0  0  0  0  0  0  0  0  0
   15.9004   35.1930   36.8094 N   0  0  0  0  0  0  0  0  0  0  0  0
    9.0098   45.4350   33.6670 H   0  0  0  0  0  0  0  0  0  0  0  0
   11.9349   45.6934   33.0931 H   0  0  0  0  0  0  0  0  0  0  0  0
   11.1131   46.1993   34.4886 H   0  0  0  0  0  0  0  0  0  0  0  0
    9.3519   43.8347   31.4760 H   0  0  0  0  0  0  0  0  0  0  0  0
   10.7310   44.8934   31.1678 H   0  0  0  0  0  0  0  0  0  0  0  0
    7.0130   44.7131   31.5797 H   0  0  0  0  0  0  0  0  0  0  0  0
   10.3467   47.1889   30.4138 H   0  0  0  0  0  0  0  0  0  0  0  0
    5.4705   46.2753   30.5031 H   0  0  0  0  0  0  0  0  0  0  0  0
    8.7936   48.7699   29.3434 H   0  0  0  0  0  0  0  0  0  0  0  0
    4.3934   47.6028   28.9340 H   0  0  0  0  0  0  0  0  0  0  0  0
    3.1058   49.6356   28.2911 H   0  0  0  0  0  0  0  0  0  0  0  0
    4.6165   50.6202   28.4243 H   0  0  0  0  0  0  0  0  0  0  0  0
    4.5151   49.2885   27.2234 H   0  0  0  0  0  0  0  0  0  0  0  0
    3.0709   47.0666   30.7696 H   0  0  0  0  0  0  0  0  0  0  0  0
    4.2074   51.2779   33.1878 H   0  0  0  0  0  0  0  0  0  0  0  0
    0.6207   48.4792   34.5782 H   0  0  0  0  0  0  0  0  0  0  0  0
    2.0417   47.6486   35.3728 H   0  0  0  0  0  0  0  0  0  0  0  0
    9.8235   40.7202   31.7651 H   0  0  0  0  0  0  0  0  0  0  0  0
   11.3780   41.5548   31.4750 H   0  0  0  0  0  0  0  0  0  0  0  0
   11.7311   39.5363   30.3531 H   0  0  0  0  0  0  0  0  0  0  0  0
   10.1203   38.2695   32.6410 H   0  0  0  0  0  0  0  0  0  0  0  0
   13.6850   37.4638   31.2321 H   0  0  0  0  0  0  0  0  0  0  0  0
   10.0251   38.1792   29.7654 H   0  0  0  0  0  0  0  0  0  0  0  0
   11.2757   36.3135   32.4907 H   0  0  0  0  0  0  0  0  0  0  0  0
   11.9838   36.9111   29.7708 H   0  0  0  0  0  0  0  0  0  0  0  0
   12.3307   38.3536   34.7457 H   0  0  0  0  0  0  0  0  0  0  0  0
   16.7566   34.1786   32.4623 H   0  0  0  0  0  0  0  0  0  0  0  0
   15.3535   35.7355   37.5144 H   0  0  0  0  0  0  0  0  0  0  0  0
   16.6353   34.5301   37.1419 H   0  0  0  0  0  0  0  0  0  0  0  0
  1  2  2  0
  1  3  1  0
  3  4  1  0
  4  5  1  0
  6  1  1  0
  7  6  1  0
  6  8  1  0
  8  9  1  0
  9 10  2  0
 11  9  1  0
 10 12  1  0
 13 11  2  0
 12 14  2  0
 14 13  1  0
 14 15  1  0
 15 16  1  0
 16 17  1  0
 16 18  1  0
 18 19  2  0
 20 18  1  0
 19 21  1  0
 22 20  2  0
 20 23  1  0
 21 24  1  0
 21 25  2  0
 25 22  1  0
 23 26  1  0
 23 27  2  0
 24 28  1  0
 25 29  1  0
 28 29  1  0
  4 30  2  0
  4 31  1  0
 32 31  1  0
 32 33  1  0
 33 34  1  0
 33 35  1  0
 34 36  1  0
 35 37  1  0
 35 38  1  0
 38 36  1  0
 36 39  1  0
 38 40  1  0
 41 39  1  0
 42 39  1  0
 43 41  2  0
 41 44  1  0
 45 42  2  0
 46 43  1  0
 44 47  2  0
 44 45  1  0
 48 46  2  0
 48 47  1  0
 47 49  1  0
  6 50  1  1
  7 51  1  0
  7 52  1  0
  8 53  1  0
  8 54  1  0
 10 55  1  0
 11 56  1  0
 12 57  1  0
 13 58  1  0
 16 59  1  6
 17 60  1  0
 17 61  1  0
 17 62  1  0
 19 63  1  0
 22 64  1  0
 28 65  1  0
 28 66  1  0
 32 67  1  0
 32 68  1  0
 33 69  1  0
 35 70  1  0
 36 71  1  0
 37 72  1  0
 38 73  1  0
 40 74  1  0
 42 75  1  0
 46 76  1  0
 49 77  1  0
 49 78  1  0
M  CHG  3   5  -1  23   1  26  -1
M  END
>  <EmbedRMS>  (196) 
0.08172427143

$$$$

     RDKit          3D

 78 83  0  0  0  0  0  0  0  0999 V2000
   10.2840   43.7625   33.8276 C   0  0  0  0  0  0  0  0  0  0  0  0
   11.4104   43.5863   34.3767 O   0  0  0  0  0  0  0  0  0  0  0  0
    9.3633   42.7234   33.7352 O   0  0  0  0  0  0  0  0  0  0  0  0
    9.8898   41.2247   34.2940 P   0  0  0  0  0  0  0  0  0  0  0  0
   10.3724   41.4544   35.8836 O   0  0  0  0  0  0  0  0  0  0  0  0
    9.9550   45.0699   33.2064 C   0  0  1  0  0  0  0  0  0  0  0  0
   11.0198   46.0481   33.4572 N   0  0  0  0  0  0  0  0  0  0  0  0
    9.7507   44.8511   31.6923 C   0  0  0  0  0  0  0  0  0  0  0  0
    8.7947   45.8420   31.0872 C   0  0  0  0  0  0  0  0  0  0  0  0
    7.4085   45.6009   31.1003 C   0  0  0  0  0  0  0  0  0  0  0  0
    9.2825   46.9889   30.4451 C   0  0  0  0  0  0  0  0  0  0  0  0
    6.5263   46.4998   30.4851 C   0  0  0  0  0  0  0  0  0  0  0  0
    8.4005   47.8870   29.8336 C   0  0  0  0  0  0  0  0  0  0  0  0
    7.0180   47.6564   29.8447 C   0  0  0  0  0  0  0  0  0  0  0  0
    6.1940   48.5967   29.1989 O   0  0  0  0  0  0  0  0  0  0  0  0
    4.7634   48.5858   29.0986 C   0  0  2  0  0  0  0  0  0  0  0  0
    4.1373   48.9188   30.4623 C   0  0  0  0  0  0  0  0  0  0  0  0
    4.2557   47.3210   28.4041 C   0  0  0  0  0  0  0  0  0  0  0  0
    3.2009   46.5522   28.9683 C   0  0  0  0  0  0  0  0  0  0  0  0
    4.8573   46.8721   27.1777 C   0  0  0  0  0  0  0  0  0  0  0  0
    2.8207   45.3758   28.3368 C   0  0  0  0  0  0  0  0  0  0  0  0
    4.4350   45.6571   26.5909 C   0  0  0  0  0  0  0  0  0  0  0  0
    5.8951   47.6241   26.5258 N   0  0  0  0  0  0  0  0  0  0  0  0
    1.8415   44.4773   28.7150 O   0  0  0  0  0  0  0  0  0  0  0  0
    3.4143   44.9448   27.2020 C   0  0  0  0  0  0  0  0  0  0  0  0
    5.7711   48.9835   26.3576 O   0  0  0  0  0  0  0  0  0  0  0  0
    6.8245   47.0288   25.9424 O   0  0  0  0  0  0  0  0  0  0  0  0
    1.8212   43.4139   27.7532 C   0  0  0  0  0  0  0  0  0  0  0  0
    2.8412   43.7524   26.8039 O   0  0  0  0  0  0  0  0  0  0  0  0
    8.8118   40.1831   34.2121 O   0  0  0  0  0  0  0  0  0  0  0  0
   11.2413   40.7933   33.3696 O   0  0  0  0  0  0  0  0  0  0  0  0
   10.9178   40.6902   31.9971 C   0  0  0  0  0  0  0  0  0  0  0  0
   11.5181   39.3813   31.4408 C   0  0  0  0  0  0  0  0  0  0  0  0
   12.7497   39.0870   32.0745 O   0  0  0  0  0  0  0  0  0  0  0  0
   10.6045   38.1891   31.6655 C   0  0  0  0  0  0  0  0  0  0  0  0
   12.9344   37.6801   32.0290 C   0  0  0  0  0  0  0  0  0  0  0  0
    9.6418   38.0758   30.6441 O   0  0  0  0  0  0  0  0  0  0  0  0
   11.5741   37.0169   31.7045 C   0  0  0  0  0  0  0  0  0  0  0  0
   13.4851   37.2125   33.3241 N   0  0  0  0  0  0  0  0  0  0  0  0
   11.6079   36.3407   30.4679 O   0  0  0  0  0  0  0  0  0  0  0  0
   14.4801   36.3321   33.5727 C   0  0  0  0  0  0  0  0  0  0  0  0
   13.1140   37.6277   34.5692 C   0  0  0  0  0  0  0  0  0  0  0  0
   15.2073   35.6155   32.6739 N   0  0  0  0  0  0  0  0  0  0  0  0
   14.6758   36.2306   34.9182 C   0  0  0  0  0  0  0  0  0  0  0  0
   13.8217   37.0451   35.5784 N   0  0  0  0  0  0  0  0  0  0  0  0
   16.1639   34.7602   33.1546 C   0  0  0  0  0  0  0  0  0  0  0  0
   15.6526   35.3506   35.4130 C   0  0  0  0  0  0  0  0  0  0  0  0
   16.3794   34.6316   34.5041 N   0  0  0  0  0  0  0  0  0  0  0  0
   15.9001   35.1933   36.8089 N   0  0  0  0  0  0  0  0  0  0  0  0
    9.0099   45.4347   33.6670 H   0  0  0  0  0  0  0  0  0  0  0  0
   11.1132   46.1991   34.4885 H   0  0  0  0  0  0  0  0  0  0  0  0
   11.9350   45.6933   33.0930 H   0  0  0  0  0  0  0  0  0  0  0  0
   10.7311   44.8931   31.1677 H   0  0  0  0  0  0  0  0  0  0  0  0
    9.3519   43.8345   31.4758 H   0  0  0  0  0  0  0  0  0  0  0  0
    7.0136   44.7145   31.5815 H   0  0  0  0  0  0  0  0  0  0  0  0
   10.3465   47.1891   30.4147 H   0  0  0  0  0  0  0  0  0  0  0  0
    5.4739   46.2725   30.5152 H   0  0  0  0  0  0  0  0  0  0  0  0
    8.7946   48.7674   29.3418 H   0  0  0  0  0  0  0  0  0  0  0  0
    4.4815   49.4349   28.4414 H   0  0  0  0  0  0  0  0  0  0  0  0
    4.2897   48.1044   31.1981 H   0  0  0  0  0  0  0  0  0  0  0  0
    3.0495   49.1135   30.3495 H   0  0  0  0  0  0  0  0  0  0  0  0
    4.6045   49.8411   30.8681 H   0  0  0  0  0  0  0  0  0  0  0  0
    2.6951   46.8346   29.8798 H   0  0  0  0  0  0  0  0  0  0  0  0
    4.8769   45.2904   25.6733 H   0  0  0  0  0  0  0  0  0  0  0  0
    2.0602   42.4473   28.2442 H   0  0  0  0  0  0  0  0  0  0  0  0
    0.8315   43.3678   27.2523 H   0  0  0  0  0  0  0  0  0  0  0  0
   11.3948   41.5458   31.4729 H   0  0  0  0  0  0  0  0  0  0  0  0
    9.8290   40.7386   31.7615 H   0  0  0  0  0  0  0  0  0  0  0  0
   11.6993   39.5069   30.3483 H   0  0  0  0  0  0  0  0  0  0  0  0
   10.1090   38.2634   32.6632 H   0  0  0  0  0  0  0  0  0  0  0  0
   13.6662   37.4514   31.2224 H   0  0  0  0  0  0  0  0  0  0  0  0
    8.9009   38.6925   30.8793 H   0  0  0  0  0  0  0  0  0  0  0  0
   11.2650   36.3082   32.5086 H   0  0  0  0  0  0  0  0  0  0  0  0
   12.1372   35.5140   30.6163 H   0  0  0  0  0  0  0  0  0  0  0  0
   12.3297   38.3529   34.7449 H   0  0  0  0  0  0  0  0  0  0  0  0
   16.7558   34.1781   32.4619 H   0  0  0  0  0  0  0  0  0  0  0  0
   16.6346   34.5300   37.1414 H   0  0  0  0  0  0  0  0  0  0  0  0
   15.3533   35.7360   37.5138 H   0  0  0  0  0  0  0  0  0  0  0  0
  1  2  2  0
  1  3  1  0
  3  4  1  0
  4  5  1  0
  6  1  1  0
  7  6  1  0
  6  8  1  0
  8  9  1  0
  9 10  2  0
 11  9  1  0
 10 12  1  0
 13 11  2  0
 12 14  2  0
 14 13  1  0
 14 15  1  0
 15 16  1  0
 16 17  1  0
 16 18  1  0
 18 19  2  0
 20 18  1  0
 19 21  1  0
 22 20  2  0
 20 23  1  0
 21 24  1  0
 21 25  2  0
 25 22  1  0
 23 26  1  0
 23 27  2  0
 24 28  1  0
 25 29  1  0
 28 29  1  0
  4 30  2  0
  4 31  1  0
 32 31  1  0
 32 33  1  0
 33 34  1  0
 33 35  1  0
 34 36  1  0
 35 37  1  0
 35 38  1  0
 38 36  1  0
 36 39  1  0
 38 40  1  0
 41 39  1  0
 42 39  1  0
 43 41  2  0
 41 44  1  0
 45 42  2  0
 46 43  1  0
 44 47  2  0
 44 45  1  0
 48 46  2  0
 48 47  1  0
 47 49  1  0
  6 50  1  1
  7 51  1  0
  7 52  1  0
  8 53  1  0
  8 54  1  0
 10 55  1  0
 11 56  1  0
 12 57  1  0
 13 58  1  0
 16 59  1  6
 17 60  1  0
 17 61  1  0
 17 62  1  0
 19 63  1  0
 22 64  1  0
 28 65  1  0
 28 66  1  0
 32 67  1  0
 32 68  1  0
 33 69  1  0
 35 70  1  0
 36 71  1  0
 37 72  1  0
 38 73  1  0
 40 74  1  0
 42 75  1  0
 46 76  1  0
 49 77  1  0
 49 78  1  0
M  CHG  3   5  -1  23   1  26  -1
M  END
>  <EmbedRMS>  (197) 
0.0836985908559

$$$$

     RDKit          3D

 78 83  0  0  0  0  0  0  0  0999 V2000
   10.2803   43.7664   33.8246 C   0  0  0  0  0  0  0  0  0  0  0  0
   11.4110   43.5920   34.3665 O   0  0  0  0  0  0  0  0  0  0  0  0
    9.3618   42.7249   33.7345 O   0  0  0  0  0  0  0  0  0  0  0  0
    9.8900   41.2268   34.2943 P   0  0  0  0  0  0  0  0  0  0  0  0
   10.3728   41.4568   35.8838 O   0  0  0  0  0  0  0  0  0  0  0  0
    9.9458   45.0736   33.2107 C   0  0  1  0  0  0  0  0  0  0  0  0
   11.0266   46.0292   33.4702 N   0  0  0  0  0  0  0  0  0  0  0  0
    9.7533   44.8541   31.6943 C   0  0  0  0  0  0  0  0  0  0  0  0
    8.7952   45.8413   31.0842 C   0  0  0  0  0  0  0  0  0  0  0  0
    7.4069   45.6010   31.1023 C   0  0  0  0  0  0  0  0  0  0  0  0
    9.2833   46.9899   30.4404 C   0  0  0  0  0  0  0  0  0  0  0  0
    6.5255   46.5024   30.4883 C   0  0  0  0  0  0  0  0  0  0  0  0
    8.4006   47.8906   29.8330 C   0  0  0  0  0  0  0  0  0  0  0  0
    7.0207   47.6442   29.8438 C   0  0  0  0  0  0  0  0  0  0  0  0
    6.1411   48.5490   29.2442 O   0  0  0  0  0  0  0  0  0  0  0  0
    5.7825   48.5176   27.8589 C   0  0  2  0  0  0  0  0  0  0  0  0
    4.8071   47.3740   27.5599 C   0  0  0  0  0  0  0  0  0  0  0  0
    7.0117   48.5894   26.9537 C   0  0  0  0  0  0  0  0  0  0  0  0
    7.4586   49.8817   26.5795 C   0  0  0  0  0  0  0  0  0  0  0  0
    7.7844   47.4484   26.5429 C   0  0  0  0  0  0  0  0  0  0  0  0
    8.6180   49.9977   25.8237 C   0  0  0  0  0  0  0  0  0  0  0  0
    8.9564   47.6271   25.7779 C   0  0  0  0  0  0  0  0  0  0  0  0
    7.3994   46.1127   26.8695 N   0  0  0  0  0  0  0  0  0  0  0  0
    9.2269   51.1463   25.3558 O   0  0  0  0  0  0  0  0  0  0  0  0
    9.3356   48.9180   25.4405 C   0  0  0  0  0  0  0  0  0  0  0  0
    6.6103   45.4179   25.9830 O   0  0  0  0  0  0  0  0  0  0  0  0
    8.0681   45.4734   27.7064 O   0  0  0  0  0  0  0  0  0  0  0  0
   10.4020   50.7598   24.6302 C   0  0  0  0  0  0  0  0  0  0  0  0
   10.4336   49.3282   24.7090 O   0  0  0  0  0  0  0  0  0  0  0  0
    8.8127   40.1842   34.2128 O   0  0  0  0  0  0  0  0  0  0  0  0
   11.2414   40.7951   33.3705 O   0  0  0  0  0  0  0  0  0  0  0  0
   10.9178   40.6922   31.9982 C   0  0  0  0  0  0  0  0  0  0  0  0
   11.5175   39.3837   31.4423 C   0  0  0  0  0  0  0  0  0  0  0  0
   12.7507   39.0888   32.0753 O   0  0  0  0  0  0  0  0  0  0  0  0
   10.6027   38.1916   31.6658 C   0  0  0  0  0  0  0  0  0  0  0  0
   12.9384   37.6819   32.0278 C   0  0  0  0  0  0  0  0  0  0  0  0
    9.6371   38.0805   30.6470 O   0  0  0  0  0  0  0  0  0  0  0  0
   11.5780   37.0215   31.6935 C   0  0  0  0  0  0  0  0  0  0  0  0
   13.4844   37.2120   33.3242 N   0  0  0  0  0  0  0  0  0  0  0  0
   11.6095   36.3202   30.4679 O   0  0  0  0  0  0  0  0  0  0  0  0
   14.4797   36.3318   33.5730 C   0  0  0  0  0  0  0  0  0  0  0  0
   13.1135   37.6278   34.5691 C   0  0  0  0  0  0  0  0  0  0  0  0
   15.2073   35.6155   32.6742 N   0  0  0  0  0  0  0  0  0  0  0  0
   14.6754   36.2305   34.9184 C   0  0  0  0  0  0  0  0  0  0  0  0
   13.8213   37.0452   35.5785 N   0  0  0  0  0  0  0  0  0  0  0  0
   16.1640   34.7604   33.1549 C   0  0  0  0  0  0  0  0  0  0  0  0
   15.6524   35.3507   35.4132 C   0  0  0  0  0  0  0  0  0  0  0  0
   16.3794   34.6318   34.5043 N   0  0  0  0  0  0  0  0  0  0  0  0
   15.9000   35.1934   36.8091 N   0  0  0  0  0  0  0  0  0  0  0  0
    8.9995   45.4382   33.6718 H   0  0  0  0  0  0  0  0  0  0  0  0
   11.0501   46.2278   34.4976 H   0  0  0  0  0  0  0  0  0  0  0  0
   10.7764   46.9368   33.0151 H   0  0  0  0  0  0  0  0  0  0  0  0
    9.3632   43.8356   31.4707 H   0  0  0  0  0  0  0  0  0  0  0  0
   10.7402   44.9075   31.1825 H   0  0  0  0  0  0  0  0  0  0  0  0
    7.0114   44.7182   31.5890 H   0  0  0  0  0  0  0  0  0  0  0  0
   10.3470   47.1904   30.4077 H   0  0  0  0  0  0  0  0  0  0  0  0
    5.4602   46.3128   30.5134 H   0  0  0  0  0  0  0  0  0  0  0  0
    8.7894   48.7763   29.3469 H   0  0  0  0  0  0  0  0  0  0  0  0
    5.1868   49.4395   27.6768 H   0  0  0  0  0  0  0  0  0  0  0  0
    4.6387   47.2849   26.4657 H   0  0  0  0  0  0  0  0  0  0  0  0
    5.1670   46.4098   27.9682 H   0  0  0  0  0  0  0  0  0  0  0  0
    3.8302   47.5866   28.0442 H   0  0  0  0  0  0  0  0  0  0  0  0
    6.9273   50.7753   26.8825 H   0  0  0  0  0  0  0  0  0  0  0  0
    9.5497   46.7804   25.4566 H   0  0  0  0  0  0  0  0  0  0  0  0
   10.3233   51.0835   23.5712 H   0  0  0  0  0  0  0  0  0  0  0  0
   11.3071   51.1899   25.1079 H   0  0  0  0  0  0  0  0  0  0  0  0
   11.3949   41.5477   31.4741 H   0  0  0  0  0  0  0  0  0  0  0  0
    9.8290   40.7408   31.7624 H   0  0  0  0  0  0  0  0  0  0  0  0
   11.6982   39.5114   30.3500 H   0  0  0  0  0  0  0  0  0  0  0  0
   10.1117   38.2604   32.6660 H   0  0  0  0  0  0  0  0  0  0  0  0
   13.6767   37.4557   31.2267 H   0  0  0  0  0  0  0  0  0  0  0  0
    8.8961   38.6951   30.8871 H   0  0  0  0  0  0  0  0  0  0  0  0
   11.2791   36.3072   32.4922 H   0  0  0  0  0  0  0  0  0  0  0  0
   11.8828   36.9598   29.7588 H   0  0  0  0  0  0  0  0  0  0  0  0
   12.3300   38.3539   34.7446 H   0  0  0  0  0  0  0  0  0  0  0  0
   16.7561   34.1785   32.4621 H   0  0  0  0  0  0  0  0  0  0  0  0
   16.6347   34.5303   37.1416 H   0  0  0  0  0  0  0  0  0  0  0  0
   15.3531   35.7360   37.5140 H   0  0  0  0  0  0  0  0  0  0  0  0
  1  2  2  0
  1  3  1  0
  3  4  1  0
  4  5  1  0
  6  1  1  0
  7  6  1  0
  6  8  1  0
  8  9  1  0
  9 10  2  0
 11  9  1  0
 10 12  1  0
 13 11  2  0
 12 14  2  0
 14 13  1  0
 14 15  1  0
 15 16  1  0
 16 17  1  0
 16 18  1  0
 18 19  2  0
 20 18  1  0
 19 21  1  0
 22 20  2  0
 20 23  1  0
 21 24  1  0
 21 25  2  0
 25 22  1  0
 23 26  1  0
 23 27  2  0
 24 28  1  0
 25 29  1  0
 28 29  1  0
  4 30  2  0
  4 31  1  0
 32 31  1  0
 32 33  1  0
 33 34  1  0
 33 35  1  0
 34 36  1  0
 35 37  1  0
 35 38  1  0
 38 36  1  0
 36 39  1  0
 38 40  1  0
 41 39  1  0
 42 39  1  0
 43 41  2  0
 41 44  1  0
 45 42  2  0
 46 43  1  0
 44 47  2  0
 44 45  1  0
 48 46  2  0
 48 47  1  0
 47 49  1  0
  6 50  1  1
  7 51  1  0
  7 52  1  0
  8 53  1  0
  8 54  1  0
 10 55  1  0
 11 56  1  0
 12 57  1  0
 13 58  1  0
 16 59  1  6
 17 60  1  0
 17 61  1  0
 17 62  1  0
 19 63  1  0
 22 64  1  0
 28 65  1  0
 28 66  1  0
 32 67  1  0
 32 68  1  0
 33 69  1  0
 35 70  1  0
 36 71  1  0
 37 72  1  0
 38 73  1  0
 40 74  1  0
 42 75  1  0
 46 76  1  0
 49 77  1  0
 49 78  1  0
M  CHG  3   5  -1  23   1  26  -1
M  END
>  <EmbedRMS>  (198) 
0.0819130804592

$$$$

     RDKit          3D

 78 83  0  0  0  0  0  0  0  0999 V2000
   10.2833   43.7662   33.8253 C   0  0  0  0  0  0  0  0  0  0  0  0
   11.4100   43.5932   34.3750 O   0  0  0  0  0  0  0  0  0  0  0  0
    9.3637   42.7255   33.7346 O   0  0  0  0  0  0  0  0  0  0  0  0
    9.8906   41.2266   34.2933 P   0  0  0  0  0  0  0  0  0  0  0  0
   10.3742   41.4558   35.8827 O   0  0  0  0  0  0  0  0  0  0  0  0
    9.9545   45.0695   33.2029 C   0  0  1  0  0  0  0  0  0  0  0  0
   11.0272   46.0322   33.4752 N   0  0  0  0  0  0  0  0  0  0  0  0
    9.7466   44.8482   31.6868 C   0  0  0  0  0  0  0  0  0  0  0  0
    8.7922   45.8405   31.0830 C   0  0  0  0  0  0  0  0  0  0  0  0
    7.4041   45.6023   31.1009 C   0  0  0  0  0  0  0  0  0  0  0  0
    9.2823   46.9896   30.4427 C   0  0  0  0  0  0  0  0  0  0  0  0
    6.5240   46.5047   30.4878 C   0  0  0  0  0  0  0  0  0  0  0  0
    8.4008   47.8918   29.8359 C   0  0  0  0  0  0  0  0  0  0  0  0
    7.0213   47.6466   29.8414 C   0  0  0  0  0  0  0  0  0  0  0  0
    6.1572   48.5576   29.2252 O   0  0  0  0  0  0  0  0  0  0  0  0
    5.5345   48.3638   27.9475 C   0  0  2  0  0  0  0  0  0  0  0  0
    4.5495   47.1889   27.9530 C   0  0  0  0  0  0  0  0  0  0  0  0
    6.5681   48.2452   26.8311 C   0  0  0  0  0  0  0  0  0  0  0  0
    7.4160   47.1081   26.7864 C   0  0  0  0  0  0  0  0  0  0  0  0
    6.7535   49.2849   25.8590 C   0  0  0  0  0  0  0  0  0  0  0  0
    8.4212   47.0621   25.8302 C   0  0  0  0  0  0  0  0  0  0  0  0
    7.8029   49.1891   24.9173 C   0  0  0  0  0  0  0  0  0  0  0  0
    5.8792   50.4197   25.7957 N   0  0  0  0  0  0  0  0  0  0  0  0
    9.3600   46.0707   25.6190 O   0  0  0  0  0  0  0  0  0  0  0  0
    8.6104   48.0609   24.9389 C   0  0  0  0  0  0  0  0  0  0  0  0
    4.5298   50.2292   25.6060 O   0  0  0  0  0  0  0  0  0  0  0  0
    6.3559   51.5620   25.6341 O   0  0  0  0  0  0  0  0  0  0  0  0
   10.1912   46.4752   24.5226 C   0  0  0  0  0  0  0  0  0  0  0  0
    9.6774   47.7514   24.1176 O   0  0  0  0  0  0  0  0  0  0  0  0
    8.8123   40.1851   34.2127 O   0  0  0  0  0  0  0  0  0  0  0  0
   11.2406   40.7945   33.3670 O   0  0  0  0  0  0  0  0  0  0  0  0
   10.9134   40.6867   31.9954 C   0  0  0  0  0  0  0  0  0  0  0  0
   11.5167   39.3787   31.4404 C   0  0  0  0  0  0  0  0  0  0  0  0
   12.7486   39.0849   32.0734 O   0  0  0  0  0  0  0  0  0  0  0  0
   10.6039   38.1884   31.6669 C   0  0  0  0  0  0  0  0  0  0  0  0
   12.9329   37.6776   32.0284 C   0  0  0  0  0  0  0  0  0  0  0  0
    9.6374   38.0938   30.6484 O   0  0  0  0  0  0  0  0  0  0  0  0
   11.5737   37.0141   31.7055 C   0  0  0  0  0  0  0  0  0  0  0  0
   13.4853   37.2120   33.3238 N   0  0  0  0  0  0  0  0  0  0  0  0
   11.6210   36.3379   30.4684 O   0  0  0  0  0  0  0  0  0  0  0  0
   14.4804   36.3319   33.5726 C   0  0  0  0  0  0  0  0  0  0  0  0
   13.1141   37.6275   34.5689 C   0  0  0  0  0  0  0  0  0  0  0  0
   15.2075   35.6152   32.6740 N   0  0  0  0  0  0  0  0  0  0  0  0
   14.6761   36.2307   34.9181 C   0  0  0  0  0  0  0  0  0  0  0  0
   13.8218   37.0451   35.5783 N   0  0  0  0  0  0  0  0  0  0  0  0
   16.1641   34.7600   33.1548 C   0  0  0  0  0  0  0  0  0  0  0  0
   15.6527   35.3507   35.4131 C   0  0  0  0  0  0  0  0  0  0  0  0
   16.3795   34.6315   34.5043 N   0  0  0  0  0  0  0  0  0  0  0  0
   15.9000   35.1933   36.8090 N   0  0  0  0  0  0  0  0  0  0  0  0
    9.0118   45.4318   33.6706 H   0  0  0  0  0  0  0  0  0  0  0  0
   11.8905   45.7659   32.9466 H   0  0  0  0  0  0  0  0  0  0  0  0
   10.7257   46.9688   33.1209 H   0  0  0  0  0  0  0  0  0  0  0  0
   10.7230   44.8819   31.1549 H   0  0  0  0  0  0  0  0  0  0  0  0
    9.3416   43.8330   31.4754 H   0  0  0  0  0  0  0  0  0  0  0  0
    7.0070   44.7211   31.5895 H   0  0  0  0  0  0  0  0  0  0  0  0
   10.3465   47.1881   30.4116 H   0  0  0  0  0  0  0  0  0  0  0  0
    5.4591   46.3194   30.5281 H   0  0  0  0  0  0  0  0  0  0  0  0
    8.7903   48.7744   29.3447 H   0  0  0  0  0  0  0  0  0  0  0  0
    4.9145   49.2657   27.7924 H   0  0  0  0  0  0  0  0  0  0  0  0
    5.0657   46.2185   28.0963 H   0  0  0  0  0  0  0  0  0  0  0  0
    4.0007   47.1547   26.9876 H   0  0  0  0  0  0  0  0  0  0  0  0
    3.8104   47.3232   28.7710 H   0  0  0  0  0  0  0  0  0  0  0  0
    7.3152   46.2897   27.4857 H   0  0  0  0  0  0  0  0  0  0  0  0
    7.9665   49.9616   24.1768 H   0  0  0  0  0  0  0  0  0  0  0  0
   11.2453   46.5749   24.8563 H   0  0  0  0  0  0  0  0  0  0  0  0
   10.1087   45.7468   23.6889 H   0  0  0  0  0  0  0  0  0  0  0  0
    9.8226   40.7225   31.7631 H   0  0  0  0  0  0  0  0  0  0  0  0
   11.3828   41.5438   31.4668 H   0  0  0  0  0  0  0  0  0  0  0  0
   11.6979   39.5037   30.3478 H   0  0  0  0  0  0  0  0  0  0  0  0
   10.1083   38.2787   32.6626 H   0  0  0  0  0  0  0  0  0  0  0  0
   13.6638   37.4472   31.2214 H   0  0  0  0  0  0  0  0  0  0  0  0
    8.9763   37.4191   30.9532 H   0  0  0  0  0  0  0  0  0  0  0  0
   11.2821   36.3054   32.5172 H   0  0  0  0  0  0  0  0  0  0  0  0
   10.8658   35.6936   30.4652 H   0  0  0  0  0  0  0  0  0  0  0  0
   12.3293   38.3523   34.7445 H   0  0  0  0  0  0  0  0  0  0  0  0
   16.7561   34.1778   32.4621 H   0  0  0  0  0  0  0  0  0  0  0  0
   15.3533   35.7361   37.5138 H   0  0  0  0  0  0  0  0  0  0  0  0
   16.6345   34.5300   37.1416 H   0  0  0  0  0  0  0  0  0  0  0  0
  1  2  2  0
  1  3  1  0
  3  4  1  0
  4  5  1  0
  6  1  1  0
  7  6  1  0
  6  8  1  0
  8  9  1  0
  9 10  2  0
 11  9  1  0
 10 12  1  0
 13 11  2  0
 12 14  2  0
 14 13  1  0
 14 15  1  0
 15 16  1  0
 16 17  1  0
 16 18  1  0
 18 19  2  0
 20 18  1  0
 19 21  1  0
 22 20  2  0
 20 23  1  0
 21 24  1  0
 21 25  2  0
 25 22  1  0
 23 26  1  0
 23 27  2  0
 24 28  1  0
 25 29  1  0
 28 29  1  0
  4 30  2  0
  4 31  1  0
 32 31  1  0
 32 33  1  0
 33 34  1  0
 33 35  1  0
 34 36  1  0
 35 37  1  0
 35 38  1  0
 38 36  1  0
 36 39  1  0
 38 40  1  0
 41 39  1  0
 42 39  1  0
 43 41  2  0
 41 44  1  0
 45 42  2  0
 46 43  1  0
 44 47  2  0
 44 45  1  0
 48 46  2  0
 48 47  1  0
 47 49  1  0
  6 50  1  1
  7 51  1  0
  7 52  1  0
  8 53  1  0
  8 54  1  0
 10 55  1  0
 11 56  1  0
 12 57  1  0
 13 58  1  0
 16 59  1  6
 17 60  1  0
 17 61  1  0
 17 62  1  0
 19 63  1  0
 22 64  1  0
 28 65  1  0
 28 66  1  0
 32 67  1  0
 32 68  1  0
 33 69  1  0
 35 70  1  0
 36 71  1  0
 37 72  1  0
 38 73  1  0
 40 74  1  0
 42 75  1  0
 46 76  1  0
 49 77  1  0
 49 78  1  0
M  CHG  3   5  -1  23   1  26  -1
M  END
>  <EmbedRMS>  (199) 
0.0826862653496

$$$$

     RDKit          3D

 78 83  0  0  0  0  0  0  0  0999 V2000
   10.2839   43.7627   33.8276 C   0  0  0  0  0  0  0  0  0  0  0  0
   11.4103   43.5863   34.3767 O   0  0  0  0  0  0  0  0  0  0  0  0
    9.3631   42.7236   33.7352 O   0  0  0  0  0  0  0  0  0  0  0  0
    9.8898   41.2248   34.2935 P   0  0  0  0  0  0  0  0  0  0  0  0
   10.3734   41.4543   35.8829 O   0  0  0  0  0  0  0  0  0  0  0  0
    9.9549   45.0700   33.2063 C   0  0  1  0  0  0  0  0  0  0  0  0
   11.0198   46.0481   33.4571 N   0  0  0  0  0  0  0  0  0  0  0  0
    9.7507   44.8510   31.6921 C   0  0  0  0  0  0  0  0  0  0  0  0
    8.7946   45.8416   31.0865 C   0  0  0  0  0  0  0  0  0  0  0  0
    7.4080   45.6007   31.1005 C   0  0  0  0  0  0  0  0  0  0  0  0
    9.2827   46.9891   30.4448 C   0  0  0  0  0  0  0  0  0  0  0  0
    6.5254   46.5001   30.4861 C   0  0  0  0  0  0  0  0  0  0  0  0
    8.4008   47.8883   29.8342 C   0  0  0  0  0  0  0  0  0  0  0  0
    7.0189   47.6553   29.8441 C   0  0  0  0  0  0  0  0  0  0  0  0
    6.1871   48.5973   29.2160 O   0  0  0  0  0  0  0  0  0  0  0  0
    4.7754   48.4773   29.0216 C   0  0  2  0  0  0  0  0  0  0  0  0
    4.4726   47.4605   27.9127 C   0  0  0  0  0  0  0  0  0  0  0  0
    4.2168   49.8409   28.6559 C   0  0  0  0  0  0  0  0  0  0  0  0
    4.7247   50.4951   27.5056 C   0  0  0  0  0  0  0  0  0  0  0  0
    3.1693   50.4676   29.4095 C   0  0  0  0  0  0  0  0  0  0  0  0
    4.1580   51.7041   27.1236 C   0  0  0  0  0  0  0  0  0  0  0  0
    2.6200   51.6909   28.9628 C   0  0  0  0  0  0  0  0  0  0  0  0
    2.6792   49.9000   30.6322 N   0  0  0  0  0  0  0  0  0  0  0  0
    4.4831   52.5019   26.0435 O   0  0  0  0  0  0  0  0  0  0  0  0
    3.1461   52.2735   27.8177 C   0  0  0  0  0  0  0  0  0  0  0  0
    3.5541   49.6396   31.6616 O   0  0  0  0  0  0  0  0  0  0  0  0
    1.4532   49.8944   30.8666 O   0  0  0  0  0  0  0  0  0  0  0  0
    3.6182   53.6458   26.0623 C   0  0  0  0  0  0  0  0  0  0  0  0
    2.7807   53.4602   27.2117 O   0  0  0  0  0  0  0  0  0  0  0  0
    8.8114   40.1834   34.2125 O   0  0  0  0  0  0  0  0  0  0  0  0
   11.2401   40.7936   33.3673 O   0  0  0  0  0  0  0  0  0  0  0  0
   10.9134   40.6864   31.9955 C   0  0  0  0  0  0  0  0  0  0  0  0
   11.5166   39.3786   31.4404 C   0  0  0  0  0  0  0  0  0  0  0  0
   12.7486   39.0849   32.0734 O   0  0  0  0  0  0  0  0  0  0  0  0
   10.6039   38.1883   31.6669 C   0  0  0  0  0  0  0  0  0  0  0  0
   12.9329   37.6775   32.0284 C   0  0  0  0  0  0  0  0  0  0  0  0
    9.6374   38.0937   30.6484 O   0  0  0  0  0  0  0  0  0  0  0  0
   11.5737   37.0140   31.7055 C   0  0  0  0  0  0  0  0  0  0  0  0
   13.4853   37.2120   33.3238 N   0  0  0  0  0  0  0  0  0  0  0  0
   11.6210   36.3378   30.4683 O   0  0  0  0  0  0  0  0  0  0  0  0
   14.4804   36.3319   33.5726 C   0  0  0  0  0  0  0  0  0  0  0  0
   13.1140   37.6275   34.5689 C   0  0  0  0  0  0  0  0  0  0  0  0
   15.2076   35.6152   32.6740 N   0  0  0  0  0  0  0  0  0  0  0  0
   14.6761   36.2306   34.9181 C   0  0  0  0  0  0  0  0  0  0  0  0
   13.8218   37.0451   35.5783 N   0  0  0  0  0  0  0  0  0  0  0  0
   16.1642   34.7600   33.1548 C   0  0  0  0  0  0  0  0  0  0  0  0
   15.6527   35.3507   35.4131 C   0  0  0  0  0  0  0  0  0  0  0  0
   16.3795   34.6315   34.5043 N   0  0  0  0  0  0  0  0  0  0  0  0
   15.9001   35.1933   36.8090 N   0  0  0  0  0  0  0  0  0  0  0  0
    9.0098   45.4349   33.6668 H   0  0  0  0  0  0  0  0  0  0  0  0
   11.1131   46.1993   34.4884 H   0  0  0  0  0  0  0  0  0  0  0  0
   11.9350   45.6933   33.0930 H   0  0  0  0  0  0  0  0  0  0  0  0
    9.3521   43.8344   31.4757 H   0  0  0  0  0  0  0  0  0  0  0  0
   10.7312   44.8931   31.1676 H   0  0  0  0  0  0  0  0  0  0  0  0
    7.0131   44.7159   31.5847 H   0  0  0  0  0  0  0  0  0  0  0  0
   10.3466   47.1898   30.4157 H   0  0  0  0  0  0  0  0  0  0  0  0
    5.4683   46.2830   30.5246 H   0  0  0  0  0  0  0  0  0  0  0  0
    8.7941   48.7709   29.3459 H   0  0  0  0  0  0  0  0  0  0  0  0
    4.3028   48.1060   29.9491 H   0  0  0  0  0  0  0  0  0  0  0  0
    4.7923   46.4438   28.2195 H   0  0  0  0  0  0  0  0  0  0  0  0
    5.0093   47.7212   26.9766 H   0  0  0  0  0  0  0  0  0  0  0  0
    3.3807   47.4319   27.7091 H   0  0  0  0  0  0  0  0  0  0  0  0
    5.5286   50.0687   26.9194 H   0  0  0  0  0  0  0  0  0  0  0  0
    1.8262   52.1841   29.5091 H   0  0  0  0  0  0  0  0  0  0  0  0
    3.0015   53.6762   25.1397 H   0  0  0  0  0  0  0  0  0  0  0  0
    4.2144   54.5763   26.1689 H   0  0  0  0  0  0  0  0  0  0  0  0
   11.3830   41.5438   31.4675 H   0  0  0  0  0  0  0  0  0  0  0  0
    9.8226   40.7225   31.7628 H   0  0  0  0  0  0  0  0  0  0  0  0
   11.6978   39.5037   30.3478 H   0  0  0  0  0  0  0  0  0  0  0  0
   10.1084   38.2785   32.6626 H   0  0  0  0  0  0  0  0  0  0  0  0
   13.6638   37.4471   31.2214 H   0  0  0  0  0  0  0  0  0  0  0  0
    8.9763   37.4190   30.9532 H   0  0  0  0  0  0  0  0  0  0  0  0
   11.2821   36.3053   32.5171 H   0  0  0  0  0  0  0  0  0  0  0  0
   10.8658   35.6935   30.4652 H   0  0  0  0  0  0  0  0  0  0  0  0
   12.3293   38.3523   34.7445 H   0  0  0  0  0  0  0  0  0  0  0  0
   16.7561   34.1778   32.4621 H   0  0  0  0  0  0  0  0  0  0  0  0
   16.6345   34.5300   37.1416 H   0  0  0  0  0  0  0  0  0  0  0  0
   15.3533   35.7361   37.5139 H   0  0  0  0  0  0  0  0  0  0  0  0
  1  2  2  0
  1  3  1  0
  3  4  1  0
  4  5  1  0
  6  1  1  0
  7  6  1  0
  6  8  1  0
  8  9  1  0
  9 10  2  0
 11  9  1  0
 10 12  1  0
 13 11  2  0
 12 14  2  0
 14 13  1  0
 14 15  1  0
 15 16  1  0
 16 17  1  0
 16 18  1  0
 18 19  2  0
 20 18  1  0
 19 21  1  0
 22 20  2  0
 20 23  1  0
 21 24  1  0
 21 25  2  0
 25 22  1  0
 23 26  1  0
 23 27  2  0
 24 28  1  0
 25 29  1  0
 28 29  1  0
  4 30  2  0
  4 31  1  0
 32 31  1  0
 32 33  1  0
 33 34  1  0
 33 35  1  0
 34 36  1  0
 35 37  1  0
 35 38  1  0
 38 36  1  0
 36 39  1  0
 38 40  1  0
 41 39  1  0
 42 39  1  0
 43 41  2  0
 41 44  1  0
 45 42  2  0
 46 43  1  0
 44 47  2  0
 44 45  1  0
 48 46  2  0
 48 47  1  0
 47 49  1  0
  6 50  1  1
  7 51  1  0
  7 52  1  0
  8 53  1  0
  8 54  1  0
 10 55  1  0
 11 56  1  0
 12 57  1  0
 13 58  1  0
 16 59  1  1
 17 60  1  0
 17 61  1  0
 17 62  1  0
 19 63  1  0
 22 64  1  0
 28 65  1  0
 28 66  1  0
 32 67  1  0
 32 68  1  0
 33 69  1  0
 35 70  1  0
 36 71  1  0
 37 72  1  0
 38 73  1  0
 40 74  1  0
 42 75  1  0
 46 76  1  0
 49 77  1  0
 49 78  1  0
M  CHG  3   5  -1  23   1  26  -1
M  END
>  <EmbedRMS>  (200) 
0.0834352653618

$$$$

     RDKit          3D

 78 83  0  0  0  0  0  0  0  0999 V2000
   10.2804   43.7664   33.8250 C   0  0  0  0  0  0  0  0  0  0  0  0
   11.4110   43.5919   34.3666 O   0  0  0  0  0  0  0  0  0  0  0  0
    9.3619   42.7249   33.7344 O   0  0  0  0  0  0  0  0  0  0  0  0
    9.8899   41.2267   34.2940 P   0  0  0  0  0  0  0  0  0  0  0  0
   10.3734   41.4567   35.8833 O   0  0  0  0  0  0  0  0  0  0  0  0
    9.9459   45.0737   33.2112 C   0  0  1  0  0  0  0  0  0  0  0  0
   11.0265   46.0293   33.4710 N   0  0  0  0  0  0  0  0  0  0  0  0
    9.7540   44.8543   31.6949 C   0  0  0  0  0  0  0  0  0  0  0  0
    8.7957   45.8412   31.0849 C   0  0  0  0  0  0  0  0  0  0  0  0
    7.4090   45.5997   31.1008 C   0  0  0  0  0  0  0  0  0  0  0  0
    9.2825   46.9876   30.4389 C   0  0  0  0  0  0  0  0  0  0  0  0
    6.5261   46.4982   30.4858 C   0  0  0  0  0  0  0  0  0  0  0  0
    8.3997   47.8870   29.8302 C   0  0  0  0  0  0  0  0  0  0  0  0
    7.0182   47.6559   29.8485 C   0  0  0  0  0  0  0  0  0  0  0  0
    6.1789   48.5954   29.2275 O   0  0  0  0  0  0  0  0  0  0  0  0
    4.7490   48.5649   29.2448 C   0  0  2  0  0  0  0  0  0  0  0  0
    4.2236   49.6276   28.2811 C   0  0  0  0  0  0  0  0  0  0  0  0
    4.2271   48.8303   30.6469 C   0  0  0  0  0  0  0  0  0  0  0  0
    4.8192   49.8715   31.4032 C   0  0  0  0  0  0  0  0  0  0  0  0
    3.2012   48.0259   31.2438 C   0  0  0  0  0  0  0  0  0  0  0  0
    4.4083   50.0537   32.7168 C   0  0  0  0  0  0  0  0  0  0  0  0
    2.8348   48.2485   32.5912 C   0  0  0  0  0  0  0  0  0  0  0  0
    2.5180   47.0044   30.5006 N   0  0  0  0  0  0  0  0  0  0  0  0
    4.8523   50.9864   33.6343 O   0  0  0  0  0  0  0  0  0  0  0  0
    3.4619   49.2732   33.2874 C   0  0  0  0  0  0  0  0  0  0  0  0
    2.0112   47.2815   29.2521 O   0  0  0  0  0  0  0  0  0  0  0  0
    2.1854   45.9408   31.0632 O   0  0  0  0  0  0  0  0  0  0  0  0
    4.1365   50.7771   34.8593 C   0  0  0  0  0  0  0  0  0  0  0  0
    3.2589   49.6743   34.5938 O   0  0  0  0  0  0  0  0  0  0  0  0
    8.8123   40.1844   34.2133 O   0  0  0  0  0  0  0  0  0  0  0  0
   11.2405   40.7942   33.3692 O   0  0  0  0  0  0  0  0  0  0  0  0
   10.9150   40.6905   31.9972 C   0  0  0  0  0  0  0  0  0  0  0  0
   11.5252   39.3886   31.4375 C   0  0  0  0  0  0  0  0  0  0  0  0
   12.7499   39.0874   32.0799 O   0  0  0  0  0  0  0  0  0  0  0  0
   10.6092   38.1926   31.6470 C   0  0  0  0  0  0  0  0  0  0  0  0
   12.9332   37.6793   32.0294 C   0  0  0  0  0  0  0  0  0  0  0  0
    9.6122   38.0894   30.6542 O   0  0  0  0  0  0  0  0  0  0  0  0
   11.5743   37.0145   31.7024 C   0  0  0  0  0  0  0  0  0  0  0  0
   13.4844   37.2108   33.3241 N   0  0  0  0  0  0  0  0  0  0  0  0
   11.6297   36.3239   30.4740 O   0  0  0  0  0  0  0  0  0  0  0  0
   14.4802   36.3313   33.5727 C   0  0  0  0  0  0  0  0  0  0  0  0
   13.1138   37.6267   34.5692 C   0  0  0  0  0  0  0  0  0  0  0  0
   15.2075   35.6149   32.6739 N   0  0  0  0  0  0  0  0  0  0  0  0
   14.6761   36.2303   34.9181 C   0  0  0  0  0  0  0  0  0  0  0  0
   13.8220   37.0447   35.5785 N   0  0  0  0  0  0  0  0  0  0  0  0
   16.1643   34.7600   33.1547 C   0  0  0  0  0  0  0  0  0  0  0  0
   15.6529   35.3505   35.4130 C   0  0  0  0  0  0  0  0  0  0  0  0
   16.3798   34.6315   34.5042 N   0  0  0  0  0  0  0  0  0  0  0  0
   15.9003   35.1932   36.8090 N   0  0  0  0  0  0  0  0  0  0  0  0
    8.9994   45.4382   33.6721 H   0  0  0  0  0  0  0  0  0  0  0  0
   11.0500   46.2278   34.4984 H   0  0  0  0  0  0  0  0  0  0  0  0
   10.7762   46.9370   33.0160 H   0  0  0  0  0  0  0  0  0  0  0  0
   10.7412   44.9081   31.1837 H   0  0  0  0  0  0  0  0  0  0  0  0
    9.3647   43.8355   31.4710 H   0  0  0  0  0  0  0  0  0  0  0  0
    7.0150   44.7142   31.5843 H   0  0  0  0  0  0  0  0  0  0  0  0
   10.3463   47.1873   30.4044 H   0  0  0  0  0  0  0  0  0  0  0  0
    5.4687   46.2788   30.5123 H   0  0  0  0  0  0  0  0  0  0  0  0
    8.7915   48.7697   29.3408 H   0  0  0  0  0  0  0  0  0  0  0  0
    4.4207   47.5764   28.8632 H   0  0  0  0  0  0  0  0  0  0  0  0
    4.5872   50.6359   28.5735 H   0  0  0  0  0  0  0  0  0  0  0  0
    4.5792   49.4085   27.2520 H   0  0  0  0  0  0  0  0  0  0  0  0
    3.1129   49.6312   28.2767 H   0  0  0  0  0  0  0  0  0  0  0  0
    5.5933   50.5037   30.9868 H   0  0  0  0  0  0  0  0  0  0  0  0
    2.0675   47.6554   33.0722 H   0  0  0  0  0  0  0  0  0  0  0  0
    4.8416   50.5175   35.6766 H   0  0  0  0  0  0  0  0  0  0  0  0
    3.5474   51.6816   35.1192 H   0  0  0  0  0  0  0  0  0  0  0  0
    9.8241   40.7215   31.7641 H   0  0  0  0  0  0  0  0  0  0  0  0
   11.3800   41.5528   31.4730 H   0  0  0  0  0  0  0  0  0  0  0  0
   11.7266   39.5310   30.3513 H   0  0  0  0  0  0  0  0  0  0  0  0
   10.1110   38.2747   32.6387 H   0  0  0  0  0  0  0  0  0  0  0  0
   13.6652   37.4520   31.2226 H   0  0  0  0  0  0  0  0  0  0  0  0
   10.0511   38.1142   29.7645 H   0  0  0  0  0  0  0  0  0  0  0  0
   11.2762   36.3141   32.5189 H   0  0  0  0  0  0  0  0  0  0  0  0
   10.8593   35.6978   30.4640 H   0  0  0  0  0  0  0  0  0  0  0  0
   12.3295   38.3518   34.7449 H   0  0  0  0  0  0  0  0  0  0  0  0
   16.7564   34.1780   32.4620 H   0  0  0  0  0  0  0  0  0  0  0  0
   16.6349   34.5300   37.1416 H   0  0  0  0  0  0  0  0  0  0  0  0
   15.3534   35.7359   37.5138 H   0  0  0  0  0  0  0  0  0  0  0  0
  1  2  2  0
  1  3  1  0
  3  4  1  0
  4  5  1  0
  6  1  1  0
  7  6  1  0
  6  8  1  0
  8  9  1  0
  9 10  2  0
 11  9  1  0
 10 12  1  0
 13 11  2  0
 12 14  2  0
 14 13  1  0
 14 15  1  0
 15 16  1  0
 16 17  1  0
 16 18  1  0
 18 19  2  0
 20 18  1  0
 19 21  1  0
 22 20  2  0
 20 23  1  0
 21 24  1  0
 21 25  2  0
 25 22  1  0
 23 26  1  0
 23 27  2  0
 24 28  1  0
 25 29  1  0
 28 29  1  0
  4 30  2  0
  4 31  1  0
 32 31  1  0
 32 33  1  0
 33 34  1  0
 33 35  1  0
 34 36  1  0
 35 37  1  0
 35 38  1  0
 38 36  1  0
 36 39  1  0
 38 40  1  0
 41 39  1  0
 42 39  1  0
 43 41  2  0
 41 44  1  0
 45 42  2  0
 46 43  1  0
 44 47  2  0
 44 45  1  0
 48 46  2  0
 48 47  1  0
 47 49  1  0
  6 50  1  1
  7 51  1  0
  7 52  1  0
  8 53  1  0
  8 54  1  0
 10 55  1  0
 11 56  1  0
 12 57  1  0
 13 58  1  0
 16 59  1  6
 17 60  1  0
 17 61  1  0
 17 62  1  0
 19 63  1  0
 22 64  1  0
 28 65  1  0
 28 66  1  0
 32 67  1  0
 32 68  1  0
 33 69  1  0
 35 70  1  0
 36 71  1  0
 37 72  1  0
 38 73  1  0
 40 74  1  0
 42 75  1  0
 46 76  1  0
 49 77  1  0
 49 78  1  0
M  CHG  3   5  -1  23   1  26  -1
M  END
>  <EmbedRMS>  (201) 
0.0816339362125

$$$$

     RDKit          3D

 78 83  0  0  0  0  0  0  0  0999 V2000
   10.2840   43.7625   33.8277 C   0  0  0  0  0  0  0  0  0  0  0  0
   11.4104   43.5863   34.3768 O   0  0  0  0  0  0  0  0  0  0  0  0
    9.3634   42.7233   33.7352 O   0  0  0  0  0  0  0  0  0  0  0  0
    9.8899   41.2246   34.2940 P   0  0  0  0  0  0  0  0  0  0  0  0
   10.3724   41.4544   35.8837 O   0  0  0  0  0  0  0  0  0  0  0  0
    9.9548   45.0699   33.2066 C   0  0  1  0  0  0  0  0  0  0  0  0
   11.0198   46.0480   33.4569 N   0  0  0  0  0  0  0  0  0  0  0  0
    9.7500   44.8508   31.6926 C   0  0  0  0  0  0  0  0  0  0  0  0
    8.7941   45.8420   31.0875 C   0  0  0  0  0  0  0  0  0  0  0  0
    7.4077   45.6008   31.0997 C   0  0  0  0  0  0  0  0  0  0  0  0
    9.2830   46.9886   30.4446 C   0  0  0  0  0  0  0  0  0  0  0  0
    6.5285   46.5013   30.4831 C   0  0  0  0  0  0  0  0  0  0  0  0
    8.4038   47.8894   29.8313 C   0  0  0  0  0  0  0  0  0  0  0  0
    7.0138   47.6535   29.8490 C   0  0  0  0  0  0  0  0  0  0  0  0
    6.0821   48.5168   29.2488 O   0  0  0  0  0  0  0  0  0  0  0  0
    6.3594   49.8050   28.6969 C   0  0  2  0  0  0  0  0  0  0  0  0
    6.6622   50.8293   29.7994 C   0  0  0  0  0  0  0  0  0  0  0  0
    5.1906   50.2538   27.8327 C   0  0  0  0  0  0  0  0  0  0  0  0
    5.4405   50.4987   26.4587 C   0  0  0  0  0  0  0  0  0  0  0  0
    3.8670   50.4821   28.3501 C   0  0  0  0  0  0  0  0  0  0  0  0
    4.4035   50.9688   25.6643 C   0  0  0  0  0  0  0  0  0  0  0  0
    2.8574   50.9771   27.4945 C   0  0  0  0  0  0  0  0  0  0  0  0
    3.5287   50.2427   29.7239 N   0  0  0  0  0  0  0  0  0  0  0  0
    4.4250   51.2761   24.3174 O   0  0  0  0  0  0  0  0  0  0  0  0
    3.1678   51.2010   26.1608 C   0  0  0  0  0  0  0  0  0  0  0  0
    2.7320   51.1435   30.3921 O   0  0  0  0  0  0  0  0  0  0  0  0
    3.7258   49.1221   30.2348 O   0  0  0  0  0  0  0  0  0  0  0  0
    3.1162   51.7298   23.9462 C   0  0  0  0  0  0  0  0  0  0  0  0
    2.3446   51.6662   25.1534 O   0  0  0  0  0  0  0  0  0  0  0  0
    8.8119   40.1831   34.2121 O   0  0  0  0  0  0  0  0  0  0  0  0
   11.2416   40.7932   33.3699 O   0  0  0  0  0  0  0  0  0  0  0  0
   10.9186   40.6909   31.9972 C   0  0  0  0  0  0  0  0  0  0  0  0
   11.5172   39.3814   31.4407 C   0  0  0  0  0  0  0  0  0  0  0  0
   12.7493   39.0855   32.0727 O   0  0  0  0  0  0  0  0  0  0  0  0
   10.6023   38.1907   31.6665 C   0  0  0  0  0  0  0  0  0  0  0  0
   12.9319   37.6781   32.0281 C   0  0  0  0  0  0  0  0  0  0  0  0
    9.6392   38.0797   30.6452 O   0  0  0  0  0  0  0  0  0  0  0  0
   11.5715   37.0165   31.7056 C   0  0  0  0  0  0  0  0  0  0  0  0
   13.4847   37.2121   33.3235 N   0  0  0  0  0  0  0  0  0  0  0  0
   11.6187   36.3383   30.4694 O   0  0  0  0  0  0  0  0  0  0  0  0
   14.4801   36.3321   33.5724 C   0  0  0  0  0  0  0  0  0  0  0  0
   13.1137   37.6275   34.5687 C   0  0  0  0  0  0  0  0  0  0  0  0
   15.2073   35.6153   32.6738 N   0  0  0  0  0  0  0  0  0  0  0  0
   14.6759   36.2308   34.9179 C   0  0  0  0  0  0  0  0  0  0  0  0
   13.8216   37.0452   35.5781 N   0  0  0  0  0  0  0  0  0  0  0  0
   16.1640   34.7602   33.1546 C   0  0  0  0  0  0  0  0  0  0  0  0
   15.6526   35.3508   35.4129 C   0  0  0  0  0  0  0  0  0  0  0  0
   16.3794   34.6317   34.5041 N   0  0  0  0  0  0  0  0  0  0  0  0
   15.8999   35.1935   36.8088 N   0  0  0  0  0  0  0  0  0  0  0  0
    9.0099   45.4347   33.6674 H   0  0  0  0  0  0  0  0  0  0  0  0
   11.9348   45.6932   33.0924 H   0  0  0  0  0  0  0  0  0  0  0  0
   11.1136   46.1992   34.4882 H   0  0  0  0  0  0  0  0  0  0  0  0
   10.7302   44.8922   31.1677 H   0  0  0  0  0  0  0  0  0  0  0  0
    9.3506   43.8344   31.4765 H   0  0  0  0  0  0  0  0  0  0  0  0
    7.0110   44.7154   31.5811 H   0  0  0  0  0  0  0  0  0  0  0  0
   10.3476   47.1858   30.4137 H   0  0  0  0  0  0  0  0  0  0  0  0
    5.4642   46.3033   30.5001 H   0  0  0  0  0  0  0  0  0  0  0  0
    8.8227   48.7556   29.3409 H   0  0  0  0  0  0  0  0  0  0  0  0
    7.2635   49.7279   28.0549 H   0  0  0  0  0  0  0  0  0  0  0  0
    7.6201   50.5851   30.3020 H   0  0  0  0  0  0  0  0  0  0  0  0
    5.8692   50.8397   30.5731 H   0  0  0  0  0  0  0  0  0  0  0  0
    6.7554   51.8461   29.3615 H   0  0  0  0  0  0  0  0  0  0  0  0
    6.4179   50.3414   26.0201 H   0  0  0  0  0  0  0  0  0  0  0  0
    1.8550   51.1650   27.8574 H   0  0  0  0  0  0  0  0  0  0  0  0
    3.1627   52.7753   23.5758 H   0  0  0  0  0  0  0  0  0  0  0  0
    2.6805   51.0580   23.1772 H   0  0  0  0  0  0  0  0  0  0  0  0
    9.8300   40.7410   31.7611 H   0  0  0  0  0  0  0  0  0  0  0  0
   11.3972   41.5459   31.4735 H   0  0  0  0  0  0  0  0  0  0  0  0
   11.6974   39.5067   30.3480 H   0  0  0  0  0  0  0  0  0  0  0  0
   10.1077   38.2647   32.6645 H   0  0  0  0  0  0  0  0  0  0  0  0
   13.6621   37.4467   31.2208 H   0  0  0  0  0  0  0  0  0  0  0  0
    8.8974   38.6943   30.8831 H   0  0  0  0  0  0  0  0  0  0  0  0
   11.2806   36.3073   32.5170 H   0  0  0  0  0  0  0  0  0  0  0  0
   10.8493   35.7110   30.4585 H   0  0  0  0  0  0  0  0  0  0  0  0
   12.3290   38.3524   34.7444 H   0  0  0  0  0  0  0  0  0  0  0  0
   16.7559   34.1780   32.4619 H   0  0  0  0  0  0  0  0  0  0  0  0
   16.6344   34.5301   37.1414 H   0  0  0  0  0  0  0  0  0  0  0  0
   15.3531   35.7362   37.5137 H   0  0  0  0  0  0  0  0  0  0  0  0
  1  2  2  0
  1  3  1  0
  3  4  1  0
  4  5  1  0
  6  1  1  0
  7  6  1  0
  6  8  1  0
  8  9  1  0
  9 10  2  0
 11  9  1  0
 10 12  1  0
 13 11  2  0
 12 14  2  0
 14 13  1  0
 14 15  1  0
 15 16  1  0
 16 17  1  0
 16 18  1  0
 18 19  2  0
 20 18  1  0
 19 21  1  0
 22 20  2  0
 20 23  1  0
 21 24  1  0
 21 25  2  0
 25 22  1  0
 23 26  1  0
 23 27  2  0
 24 28  1  0
 25 29  1  0
 28 29  1  0
  4 30  2  0
  4 31  1  0
 32 31  1  0
 32 33  1  0
 33 34  1  0
 33 35  1  0
 34 36  1  0
 35 37  1  0
 35 38  1  0
 38 36  1  0
 36 39  1  0
 38 40  1  0
 41 39  1  0
 42 39  1  0
 43 41  2  0
 41 44  1  0
 45 42  2  0
 46 43  1  0
 44 47  2  0
 44 45  1  0
 48 46  2  0
 48 47  1  0
 47 49  1  0
  6 50  1  1
  7 51  1  0
  7 52  1  0
  8 53  1  0
  8 54  1  0
 10 55  1  0
 11 56  1  0
 12 57  1  0
 13 58  1  0
 16 59  1  6
 17 60  1  0
 17 61  1  0
 17 62  1  0
 19 63  1  0
 22 64  1  0
 28 65  1  0
 28 66  1  0
 32 67  1  0
 32 68  1  0
 33 69  1  0
 35 70  1  0
 36 71  1  0
 37 72  1  0
 38 73  1  0
 40 74  1  0
 42 75  1  0
 46 76  1  0
 49 77  1  0
 49 78  1  0
M  CHG  3   5  -1  23   1  26  -1
M  END
>  <EmbedRMS>  (202) 
0.0838155874015

$$$$

     RDKit          3D

 78 83  0  0  0  0  0  0  0  0999 V2000
   10.2835   43.7661   33.8257 C   0  0  0  0  0  0  0  0  0  0  0  0
   11.4102   43.5930   34.3753 O   0  0  0  0  0  0  0  0  0  0  0  0
    9.3638   42.7254   33.7349 O   0  0  0  0  0  0  0  0  0  0  0  0
    9.8907   41.2265   34.2933 P   0  0  0  0  0  0  0  0  0  0  0  0
   10.3743   41.4556   35.8828 O   0  0  0  0  0  0  0  0  0  0  0  0
    9.9547   45.0695   33.2037 C   0  0  1  0  0  0  0  0  0  0  0  0
   11.0274   46.0321   33.4757 N   0  0  0  0  0  0  0  0  0  0  0  0
    9.7465   44.8481   31.6878 C   0  0  0  0  0  0  0  0  0  0  0  0
    8.7923   45.8409   31.0848 C   0  0  0  0  0  0  0  0  0  0  0  0
    7.4058   45.6014   31.0988 C   0  0  0  0  0  0  0  0  0  0  0  0
    9.2820   46.9874   30.4422 C   0  0  0  0  0  0  0  0  0  0  0  0
    6.5272   46.5027   30.4831 C   0  0  0  0  0  0  0  0  0  0  0  0
    8.4034   47.8896   29.8307 C   0  0  0  0  0  0  0  0  0  0  0  0
    7.0131   47.6545   29.8485 C   0  0  0  0  0  0  0  0  0  0  0  0
    6.0820   48.5187   29.2485 O   0  0  0  0  0  0  0  0  0  0  0  0
    6.3694   49.7916   28.6635 C   0  0  2  0  0  0  0  0  0  0  0  0
    6.6489   50.8322   29.7565 C   0  0  0  0  0  0  0  0  0  0  0  0
    5.1822   50.2180   27.8186 C   0  0  0  0  0  0  0  0  0  0  0  0
    3.9157   50.3418   28.4429 C   0  0  0  0  0  0  0  0  0  0  0  0
    5.3074   50.5367   26.4256 C   0  0  0  0  0  0  0  0  0  0  0  0
    2.8464   50.8103   27.6906 C   0  0  0  0  0  0  0  0  0  0  0  0
    4.1875   51.0251   25.7149 C   0  0  0  0  0  0  0  0  0  0  0  0
    6.5397   50.3430   25.7175 N   0  0  0  0  0  0  0  0  0  0  0  0
    1.5405   51.0185   28.0907 O   0  0  0  0  0  0  0  0  0  0  0  0
    2.9780   51.1434   26.3861 C   0  0  0  0  0  0  0  0  0  0  0  0
    7.1306   49.1006   25.7048 O   0  0  0  0  0  0  0  0  0  0  0  0
    6.9302   51.2049   24.9034 O   0  0  0  0  0  0  0  0  0  0  0  0
    0.8061   51.5144   26.9630 C   0  0  0  0  0  0  0  0  0  0  0  0
    1.7619   51.5785   25.8956 O   0  0  0  0  0  0  0  0  0  0  0  0
    8.8123   40.1850   34.2127 O   0  0  0  0  0  0  0  0  0  0  0  0
   11.2407   40.7945   33.3670 O   0  0  0  0  0  0  0  0  0  0  0  0
   10.9134   40.6866   31.9954 C   0  0  0  0  0  0  0  0  0  0  0  0
   11.5167   39.3787   31.4404 C   0  0  0  0  0  0  0  0  0  0  0  0
   12.7486   39.0849   32.0734 O   0  0  0  0  0  0  0  0  0  0  0  0
   10.6039   38.1884   31.6669 C   0  0  0  0  0  0  0  0  0  0  0  0
   12.9329   37.6776   32.0284 C   0  0  0  0  0  0  0  0  0  0  0  0
    9.6374   38.0938   30.6485 O   0  0  0  0  0  0  0  0  0  0  0  0
   11.5737   37.0141   31.7055 C   0  0  0  0  0  0  0  0  0  0  0  0
   13.4853   37.2120   33.3238 N   0  0  0  0  0  0  0  0  0  0  0  0
   11.6210   36.3379   30.4683 O   0  0  0  0  0  0  0  0  0  0  0  0
   14.4804   36.3319   33.5726 C   0  0  0  0  0  0  0  0  0  0  0  0
   13.1141   37.6275   34.5689 C   0  0  0  0  0  0  0  0  0  0  0  0
   15.2076   35.6152   32.6740 N   0  0  0  0  0  0  0  0  0  0  0  0
   14.6761   36.2307   34.9181 C   0  0  0  0  0  0  0  0  0  0  0  0
   13.8218   37.0451   35.5783 N   0  0  0  0  0  0  0  0  0  0  0  0
   16.1642   34.7600   33.1548 C   0  0  0  0  0  0  0  0  0  0  0  0
   15.6527   35.3507   35.4131 C   0  0  0  0  0  0  0  0  0  0  0  0
   16.3795   34.6315   34.5043 N   0  0  0  0  0  0  0  0  0  0  0  0
   15.9000   35.1933   36.8090 N   0  0  0  0  0  0  0  0  0  0  0  0
    9.0121   45.4317   33.6716 H   0  0  0  0  0  0  0  0  0  0  0  0
   11.8906   45.7658   32.9470 H   0  0  0  0  0  0  0  0  0  0  0  0
   10.7260   46.9687   33.1213 H   0  0  0  0  0  0  0  0  0  0  0  0
   10.7229   44.8814   31.1558 H   0  0  0  0  0  0  0  0  0  0  0  0
    9.3413   43.8329   31.4764 H   0  0  0  0  0  0  0  0  0  0  0  0
    7.0085   44.7163   31.5804 H   0  0  0  0  0  0  0  0  0  0  0  0
   10.3469   47.1831   30.4099 H   0  0  0  0  0  0  0  0  0  0  0  0
    5.4628   46.3055   30.5007 H   0  0  0  0  0  0  0  0  0  0  0  0
    8.8228   48.7571   29.3432 H   0  0  0  0  0  0  0  0  0  0  0  0
    7.2776   49.7166   28.0381 H   0  0  0  0  0  0  0  0  0  0  0  0
    7.5736   50.5743   30.3117 H   0  0  0  0  0  0  0  0  0  0  0  0
    5.8126   50.8781   30.4851 H   0  0  0  0  0  0  0  0  0  0  0  0
    6.7888   51.8358   29.3009 H   0  0  0  0  0  0  0  0  0  0  0  0
    3.7711   50.0924   29.4863 H   0  0  0  0  0  0  0  0  0  0  0  0
    4.2540   51.2773   24.6643 H   0  0  0  0  0  0  0  0  0  0  0  0
   -0.0144   50.8140   26.7010 H   0  0  0  0  0  0  0  0  0  0  0  0
    0.4060   52.5269   27.1803 H   0  0  0  0  0  0  0  0  0  0  0  0
    9.8225   40.7225   31.7631 H   0  0  0  0  0  0  0  0  0  0  0  0
   11.3827   41.5438   31.4669 H   0  0  0  0  0  0  0  0  0  0  0  0
   11.6978   39.5037   30.3478 H   0  0  0  0  0  0  0  0  0  0  0  0
   10.1084   38.2786   32.6627 H   0  0  0  0  0  0  0  0  0  0  0  0
   13.6638   37.4472   31.2214 H   0  0  0  0  0  0  0  0  0  0  0  0
    8.9763   37.4191   30.9532 H   0  0  0  0  0  0  0  0  0  0  0  0
   11.2821   36.3054   32.5172 H   0  0  0  0  0  0  0  0  0  0  0  0
   10.8658   35.6935   30.4652 H   0  0  0  0  0  0  0  0  0  0  0  0
   12.3293   38.3523   34.7444 H   0  0  0  0  0  0  0  0  0  0  0  0
   16.7561   34.1778   32.4621 H   0  0  0  0  0  0  0  0  0  0  0  0
   16.6345   34.5300   37.1416 H   0  0  0  0  0  0  0  0  0  0  0  0
   15.3533   35.7361   37.5138 H   0  0  0  0  0  0  0  0  0  0  0  0
  1  2  2  0
  1  3  1  0
  3  4  1  0
  4  5  1  0
  6  1  1  0
  7  6  1  0
  6  8  1  0
  8  9  1  0
  9 10  2  0
 11  9  1  0
 10 12  1  0
 13 11  2  0
 12 14  2  0
 14 13  1  0
 14 15  1  0
 15 16  1  0
 16 17  1  0
 16 18  1  0
 18 19  2  0
 20 18  1  0
 19 21  1  0
 22 20  2  0
 20 23  1  0
 21 24  1  0
 21 25  2  0
 25 22  1  0
 23 26  1  0
 23 27  2  0
 24 28  1  0
 25 29  1  0
 28 29  1  0
  4 30  2  0
  4 31  1  0
 32 31  1  0
 32 33  1  0
 33 34  1  0
 33 35  1  0
 34 36  1  0
 35 37  1  0
 35 38  1  0
 38 36  1  0
 36 39  1  0
 38 40  1  0
 41 39  1  0
 42 39  1  0
 43 41  2  0
 41 44  1  0
 45 42  2  0
 46 43  1  0
 44 47  2  0
 44 45  1  0
 48 46  2  0
 48 47  1  0
 47 49  1  0
  6 50  1  1
  7 51  1  0
  7 52  1  0
  8 53  1  0
  8 54  1  0
 10 55  1  0
 11 56  1  0
 12 57  1  0
 13 58  1  0
 16 59  1  6
 17 60  1  0
 17 61  1  0
 17 62  1  0
 19 63  1  0
 22 64  1  0
 28 65  1  0
 28 66  1  0
 32 67  1  0
 32 68  1  0
 33 69  1  0
 35 70  1  0
 36 71  1  0
 37 72  1  0
 38 73  1  0
 40 74  1  0
 42 75  1  0
 46 76  1  0
 49 77  1  0
 49 78  1  0
M  CHG  3   5  -1  23   1  26  -1
M  END
>  <EmbedRMS>  (203) 
0.0825446311954

$$$$

     RDKit          3D

 78 83  0  0  0  0  0  0  0  0999 V2000
   10.2804   43.7664   33.8249 C   0  0  0  0  0  0  0  0  0  0  0  0
   11.4110   43.5919   34.3666 O   0  0  0  0  0  0  0  0  0  0  0  0
    9.3619   42.7249   33.7344 O   0  0  0  0  0  0  0  0  0  0  0  0
    9.8903   41.2265   34.2931 P   0  0  0  0  0  0  0  0  0  0  0  0
   10.3742   41.4563   35.8824 O   0  0  0  0  0  0  0  0  0  0  0  0
    9.9460   45.0736   33.2111 C   0  0  1  0  0  0  0  0  0  0  0  0
   11.0267   46.0292   33.4708 N   0  0  0  0  0  0  0  0  0  0  0  0
    9.7542   44.8540   31.6947 C   0  0  0  0  0  0  0  0  0  0  0  0
    8.7959   45.8409   31.0843 C   0  0  0  0  0  0  0  0  0  0  0  0
    7.4092   45.6003   31.1013 C   0  0  0  0  0  0  0  0  0  0  0  0
    9.2824   46.9879   30.4401 C   0  0  0  0  0  0  0  0  0  0  0  0
    6.5255   46.4995   30.4875 C   0  0  0  0  0  0  0  0  0  0  0  0
    8.3996   47.8876   29.8324 C   0  0  0  0  0  0  0  0  0  0  0  0
    7.0180   47.6541   29.8440 C   0  0  0  0  0  0  0  0  0  0  0  0
    6.1856   48.5955   29.2159 O   0  0  0  0  0  0  0  0  0  0  0  0
    4.7820   48.4602   28.9870 C   0  0  2  0  0  0  0  0  0  0  0  0
    4.4940   47.4188   27.8966 C   0  0  0  0  0  0  0  0  0  0  0  0
    4.1893   49.8143   28.6270 C   0  0  0  0  0  0  0  0  0  0  0  0
    3.1852   50.3430   29.4770 C   0  0  0  0  0  0  0  0  0  0  0  0
    4.5655   50.5544   27.4512 C   0  0  0  0  0  0  0  0  0  0  0  0
    2.5860   51.5476   29.1343 C   0  0  0  0  0  0  0  0  0  0  0  0
    3.9068   51.7670   27.1476 C   0  0  0  0  0  0  0  0  0  0  0  0
    5.5836   50.0963   26.5498 N   0  0  0  0  0  0  0  0  0  0  0  0
    1.5938   52.2350   29.8069 O   0  0  0  0  0  0  0  0  0  0  0  0
    2.9290   52.2276   28.0176 C   0  0  0  0  0  0  0  0  0  0  0  0
    5.3877   50.2095   25.1928 O   0  0  0  0  0  0  0  0  0  0  0  0
    6.7298   49.8425   26.9711 O   0  0  0  0  0  0  0  0  0  0  0  0
    1.2970   53.4242   29.0623 C   0  0  0  0  0  0  0  0  0  0  0  0
    2.1722   53.3800   27.9271 O   0  0  0  0  0  0  0  0  0  0  0  0
    8.8124   40.1844   34.2130 O   0  0  0  0  0  0  0  0  0  0  0  0
   11.2405   40.7948   33.3669 O   0  0  0  0  0  0  0  0  0  0  0  0
   10.9133   40.6866   31.9952 C   0  0  0  0  0  0  0  0  0  0  0  0
   11.5166   39.3787   31.4404 C   0  0  0  0  0  0  0  0  0  0  0  0
   12.7485   39.0849   32.0735 O   0  0  0  0  0  0  0  0  0  0  0  0
   10.6039   38.1884   31.6669 C   0  0  0  0  0  0  0  0  0  0  0  0
   12.9329   37.6776   32.0284 C   0  0  0  0  0  0  0  0  0  0  0  0
    9.6373   38.0938   30.6484 O   0  0  0  0  0  0  0  0  0  0  0  0
   11.5737   37.0140   31.7055 C   0  0  0  0  0  0  0  0  0  0  0  0
   13.4853   37.2120   33.3238 N   0  0  0  0  0  0  0  0  0  0  0  0
   11.6210   36.3379   30.4683 O   0  0  0  0  0  0  0  0  0  0  0  0
   14.4804   36.3319   33.5726 C   0  0  0  0  0  0  0  0  0  0  0  0
   13.1141   37.6275   34.5689 C   0  0  0  0  0  0  0  0  0  0  0  0
   15.2076   35.6152   32.6740 N   0  0  0  0  0  0  0  0  0  0  0  0
   14.6761   36.2306   34.9181 C   0  0  0  0  0  0  0  0  0  0  0  0
   13.8218   37.0451   35.5783 N   0  0  0  0  0  0  0  0  0  0  0  0
   16.1642   34.7600   33.1548 C   0  0  0  0  0  0  0  0  0  0  0  0
   15.6527   35.3507   35.4131 C   0  0  0  0  0  0  0  0  0  0  0  0
   16.3795   34.6315   34.5043 N   0  0  0  0  0  0  0  0  0  0  0  0
   15.9001   35.1933   36.8090 N   0  0  0  0  0  0  0  0  0  0  0  0
    8.9995   45.4381   33.6719 H   0  0  0  0  0  0  0  0  0  0  0  0
   11.0501   46.2277   34.4982 H   0  0  0  0  0  0  0  0  0  0  0  0
   10.7765   46.9369   33.0158 H   0  0  0  0  0  0  0  0  0  0  0  0
    9.3648   43.8353   31.4709 H   0  0  0  0  0  0  0  0  0  0  0  0
   10.7414   44.9078   31.1835 H   0  0  0  0  0  0  0  0  0  0  0  0
    7.0152   44.7169   31.5886 H   0  0  0  0  0  0  0  0  0  0  0  0
   10.3462   47.1882   30.4063 H   0  0  0  0  0  0  0  0  0  0  0  0
    5.4682   46.2846   30.5308 H   0  0  0  0  0  0  0  0  0  0  0  0
    8.7920   48.7699   29.3425 H   0  0  0  0  0  0  0  0  0  0  0  0
    4.3031   48.1036   29.9245 H   0  0  0  0  0  0  0  0  0  0  0  0
    5.0754   47.6234   26.9758 H   0  0  0  0  0  0  0  0  0  0  0  0
    4.7673   46.4036   28.2491 H   0  0  0  0  0  0  0  0  0  0  0  0
    3.4110   47.4146   27.6485 H   0  0  0  0  0  0  0  0  0  0  0  0
    2.8673   49.8264   30.3739 H   0  0  0  0  0  0  0  0  0  0  0  0
    4.1636   52.3410   26.2665 H   0  0  0  0  0  0  0  0  0  0  0  0
    1.5102   54.3247   29.6756 H   0  0  0  0  0  0  0  0  0  0  0  0
    0.2377   53.4150   28.7301 H   0  0  0  0  0  0  0  0  0  0  0  0
   11.3826   41.5438   31.4666 H   0  0  0  0  0  0  0  0  0  0  0  0
    9.8224   40.7224   31.7629 H   0  0  0  0  0  0  0  0  0  0  0  0
   11.6979   39.5036   30.3478 H   0  0  0  0  0  0  0  0  0  0  0  0
   10.1084   38.2786   32.6627 H   0  0  0  0  0  0  0  0  0  0  0  0
   13.6638   37.4473   31.2214 H   0  0  0  0  0  0  0  0  0  0  0  0
    8.9763   37.4190   30.9532 H   0  0  0  0  0  0  0  0  0  0  0  0
   11.2821   36.3054   32.5172 H   0  0  0  0  0  0  0  0  0  0  0  0
   10.8658   35.6935   30.4652 H   0  0  0  0  0  0  0  0  0  0  0  0
   12.3293   38.3523   34.7445 H   0  0  0  0  0  0  0  0  0  0  0  0
   16.7561   34.1778   32.4621 H   0  0  0  0  0  0  0  0  0  0  0  0
   15.3533   35.7361   37.5138 H   0  0  0  0  0  0  0  0  0  0  0  0
   16.6345   34.5300   37.1416 H   0  0  0  0  0  0  0  0  0  0  0  0
  1  2  2  0
  1  3  1  0
  3  4  1  0
  4  5  1  0
  6  1  1  0
  7  6  1  0
  6  8  1  0
  8  9  1  0
  9 10  2  0
 11  9  1  0
 10 12  1  0
 13 11  2  0
 12 14  2  0
 14 13  1  0
 14 15  1  0
 15 16  1  0
 16 17  1  0
 16 18  1  0
 18 19  2  0
 20 18  1  0
 19 21  1  0
 22 20  2  0
 20 23  1  0
 21 24  1  0
 21 25  2  0
 25 22  1  0
 23 26  1  0
 23 27  2  0
 24 28  1  0
 25 29  1  0
 28 29  1  0
  4 30  2  0
  4 31  1  0
 32 31  1  0
 32 33  1  0
 33 34  1  0
 33 35  1  0
 34 36  1  0
 35 37  1  0
 35 38  1  0
 38 36  1  0
 36 39  1  0
 38 40  1  0
 41 39  1  0
 42 39  1  0
 43 41  2  0
 41 44  1  0
 45 42  2  0
 46 43  1  0
 44 47  2  0
 44 45  1  0
 48 46  2  0
 48 47  1  0
 47 49  1  0
  6 50  1  1
  7 51  1  0
  7 52  1  0
  8 53  1  0
  8 54  1  0
 10 55  1  0
 11 56  1  0
 12 57  1  0
 13 58  1  0
 16 59  1  1
 17 60  1  0
 17 61  1  0
 17 62  1  0
 19 63  1  0
 22 64  1  0
 28 65  1  0
 28 66  1  0
 32 67  1  0
 32 68  1  0
 33 69  1  0
 35 70  1  0
 36 71  1  0
 37 72  1  0
 38 73  1  0
 40 74  1  0
 42 75  1  0
 46 76  1  0
 49 77  1  0
 49 78  1  0
M  CHG  3   5  -1  23   1  26  -1
M  END
>  <EmbedRMS>  (204) 
0.0823722608137

$$$$

     RDKit          3D

 78 83  0  0  0  0  0  0  0  0999 V2000
   10.2836   43.7629   33.8276 C   0  0  0  0  0  0  0  0  0  0  0  0
   11.4101   43.5866   34.3765 O   0  0  0  0  0  0  0  0  0  0  0  0
    9.3630   42.7237   33.7353 O   0  0  0  0  0  0  0  0  0  0  0  0
    9.8894   41.2250   34.2943 P   0  0  0  0  0  0  0  0  0  0  0  0
   10.3726   41.4548   35.8838 O   0  0  0  0  0  0  0  0  0  0  0  0
    9.9544   45.0704   33.2065 C   0  0  1  0  0  0  0  0  0  0  0  0
   11.0192   46.0486   33.4572 N   0  0  0  0  0  0  0  0  0  0  0  0
    9.7500   44.8516   31.6924 C   0  0  0  0  0  0  0  0  0  0  0  0
    8.7940   45.8424   31.0871 C   0  0  0  0  0  0  0  0  0  0  0  0
    7.4063   45.5992   31.0986 C   0  0  0  0  0  0  0  0  0  0  0  0
    9.2835   46.9894   30.4420 C   0  0  0  0  0  0  0  0  0  0  0  0
    6.5263   46.4990   30.4816 C   0  0  0  0  0  0  0  0  0  0  0  0
    8.4019   47.8881   29.8290 C   0  0  0  0  0  0  0  0  0  0  0  0
    7.0211   47.6541   29.8576 C   0  0  0  0  0  0  0  0  0  0  0  0
    6.1488   48.5559   29.2429 O   0  0  0  0  0  0  0  0  0  0  0  0
    5.4180   49.5645   29.9480 C   0  0  2  0  0  0  0  0  0  0  0  0
    6.3358   50.7135   30.3855 C   0  0  0  0  0  0  0  0  0  0  0  0
    4.5293   48.9645   31.0368 C   0  0  0  0  0  0  0  0  0  0  0  0
    3.2765   48.4503   30.6183 C   0  0  0  0  0  0  0  0  0  0  0  0
    4.8808   48.8740   32.4293 C   0  0  0  0  0  0  0  0  0  0  0  0
    2.4226   47.9074   31.5691 C   0  0  0  0  0  0  0  0  0  0  0  0
    3.9659   48.3244   33.3525 C   0  0  0  0  0  0  0  0  0  0  0  0
    6.1436   49.3171   32.9296 N   0  0  0  0  0  0  0  0  0  0  0  0
    1.1671   47.3612   31.3839 O   0  0  0  0  0  0  0  0  0  0  0  0
    2.7511   47.8507   32.8790 C   0  0  0  0  0  0  0  0  0  0  0  0
    6.1757   50.3136   33.8767 O   0  0  0  0  0  0  0  0  0  0  0  0
    7.1518   48.5993   32.7747 O   0  0  0  0  0  0  0  0  0  0  0  0
    0.6773   46.9349   32.6626 C   0  0  0  0  0  0  0  0  0  0  0  0
    1.7203   47.2664   33.5895 O   0  0  0  0  0  0  0  0  0  0  0  0
    8.8114   40.1834   34.2129 O   0  0  0  0  0  0  0  0  0  0  0  0
   11.2402   40.7932   33.3696 O   0  0  0  0  0  0  0  0  0  0  0  0
   10.9151   40.6904   31.9975 C   0  0  0  0  0  0  0  0  0  0  0  0
   11.5252   39.3886   31.4375 C   0  0  0  0  0  0  0  0  0  0  0  0
   12.7500   39.0873   32.0798 O   0  0  0  0  0  0  0  0  0  0  0  0
   10.6092   38.1925   31.6469 C   0  0  0  0  0  0  0  0  0  0  0  0
   12.9332   37.6792   32.0294 C   0  0  0  0  0  0  0  0  0  0  0  0
    9.6122   38.0894   30.6542 O   0  0  0  0  0  0  0  0  0  0  0  0
   11.5743   37.0144   31.7024 C   0  0  0  0  0  0  0  0  0  0  0  0
   13.4844   37.2107   33.3241 N   0  0  0  0  0  0  0  0  0  0  0  0
   11.6297   36.3238   30.4740 O   0  0  0  0  0  0  0  0  0  0  0  0
   14.4802   36.3313   33.5727 C   0  0  0  0  0  0  0  0  0  0  0  0
   13.1138   37.6266   34.5692 C   0  0  0  0  0  0  0  0  0  0  0  0
   15.2075   35.6149   32.6739 N   0  0  0  0  0  0  0  0  0  0  0  0
   14.6761   36.2303   34.9181 C   0  0  0  0  0  0  0  0  0  0  0  0
   13.8220   37.0447   35.5785 N   0  0  0  0  0  0  0  0  0  0  0  0
   16.1643   34.7600   33.1547 C   0  0  0  0  0  0  0  0  0  0  0  0
   15.6529   35.3505   35.4130 C   0  0  0  0  0  0  0  0  0  0  0  0
   16.3798   34.6315   34.5042 N   0  0  0  0  0  0  0  0  0  0  0  0
   15.9002   35.1932   36.8090 N   0  0  0  0  0  0  0  0  0  0  0  0
    9.0092   45.4354   33.6669 H   0  0  0  0  0  0  0  0  0  0  0  0
   11.1123   46.2000   34.4884 H   0  0  0  0  0  0  0  0  0  0  0  0
   11.9344   45.6937   33.0932 H   0  0  0  0  0  0  0  0  0  0  0  0
   10.7304   44.8936   31.1678 H   0  0  0  0  0  0  0  0  0  0  0  0
    9.3512   43.8350   31.4761 H   0  0  0  0  0  0  0  0  0  0  0  0
    7.0104   44.7124   31.5779 H   0  0  0  0  0  0  0  0  0  0  0  0
   10.3476   47.1883   30.4106 H   0  0  0  0  0  0  0  0  0  0  0  0
    5.4632   46.2969   30.4894 H   0  0  0  0  0  0  0  0  0  0  0  0
    8.7909   48.7699   29.3361 H   0  0  0  0  0  0  0  0  0  0  0  0
    4.7362   50.0322   29.2031 H   0  0  0  0  0  0  0  0  0  0  0  0
    7.2465   50.3427   30.8940 H   0  0  0  0  0  0  0  0  0  0  0  0
    5.7896   51.4163   31.0500 H   0  0  0  0  0  0  0  0  0  0  0  0
    6.6735   51.2769   29.4896 H   0  0  0  0  0  0  0  0  0  0  0  0
    2.9740   48.4754   29.5788 H   0  0  0  0  0  0  0  0  0  0  0  0
    4.2075   48.2529   34.4054 H   0  0  0  0  0  0  0  0  0  0  0  0
    0.5008   45.8389   32.6604 H   0  0  0  0  0  0  0  0  0  0  0  0
   -0.2528   47.4836   32.9201 H   0  0  0  0  0  0  0  0  0  0  0  0
   11.3805   41.5528   31.4739 H   0  0  0  0  0  0  0  0  0  0  0  0
    9.8243   40.7216   31.7640 H   0  0  0  0  0  0  0  0  0  0  0  0
   11.7265   39.5311   30.3512 H   0  0  0  0  0  0  0  0  0  0  0  0
   10.1110   38.2746   32.6387 H   0  0  0  0  0  0  0  0  0  0  0  0
   13.6652   37.4519   31.2226 H   0  0  0  0  0  0  0  0  0  0  0  0
   10.0511   38.1142   29.7645 H   0  0  0  0  0  0  0  0  0  0  0  0
   11.2762   36.3141   32.5189 H   0  0  0  0  0  0  0  0  0  0  0  0
   10.8593   35.6977   30.4640 H   0  0  0  0  0  0  0  0  0  0  0  0
   12.3294   38.3518   34.7449 H   0  0  0  0  0  0  0  0  0  0  0  0
   16.7564   34.1780   32.4620 H   0  0  0  0  0  0  0  0  0  0  0  0
   15.3534   35.7359   37.5138 H   0  0  0  0  0  0  0  0  0  0  0  0
   16.6348   34.5300   37.1416 H   0  0  0  0  0  0  0  0  0  0  0  0
  1  2  2  0
  1  3  1  0
  3  4  1  0
  4  5  1  0
  6  1  1  0
  7  6  1  0
  6  8  1  0
  8  9  1  0
  9 10  2  0
 11  9  1  0
 10 12  1  0
 13 11  2  0
 12 14  2  0
 14 13  1  0
 14 15  1  0
 15 16  1  0
 16 17  1  0
 16 18  1  0
 18 19  2  0
 20 18  1  0
 19 21  1  0
 22 20  2  0
 20 23  1  0
 21 24  1  0
 21 25  2  0
 25 22  1  0
 23 26  1  0
 23 27  2  0
 24 28  1  0
 25 29  1  0
 28 29  1  0
  4 30  2  0
  4 31  1  0
 32 31  1  0
 32 33  1  0
 33 34  1  0
 33 35  1  0
 34 36  1  0
 35 37  1  0
 35 38  1  0
 38 36  1  0
 36 39  1  0
 38 40  1  0
 41 39  1  0
 42 39  1  0
 43 41  2  0
 41 44  1  0
 45 42  2  0
 46 43  1  0
 44 47  2  0
 44 45  1  0
 48 46  2  0
 48 47  1  0
 47 49  1  0
  6 50  1  1
  7 51  1  0
  7 52  1  0
  8 53  1  0
  8 54  1  0
 10 55  1  0
 11 56  1  0
 12 57  1  0
 13 58  1  0
 16 59  1  6
 17 60  1  0
 17 61  1  0
 17 62  1  0
 19 63  1  0
 22 64  1  0
 28 65  1  0
 28 66  1  0
 32 67  1  0
 32 68  1  0
 33 69  1  0
 35 70  1  0
 36 71  1  0
 37 72  1  0
 38 73  1  0
 40 74  1  0
 42 75  1  0
 46 76  1  0
 49 77  1  0
 49 78  1  0
M  CHG  3   5  -1  23   1  26  -1
M  END
>  <EmbedRMS>  (205) 
0.0828126566916

$$$$

     RDKit          3D

 78 83  0  0  0  0  0  0  0  0999 V2000
   10.2799   43.7668   33.8249 C   0  0  0  0  0  0  0  0  0  0  0  0
   11.4107   43.5924   34.3664 O   0  0  0  0  0  0  0  0  0  0  0  0
    9.3616   42.7251   33.7345 O   0  0  0  0  0  0  0  0  0  0  0  0
    9.8898   41.2268   34.2939 P   0  0  0  0  0  0  0  0  0  0  0  0
   10.3735   41.4568   35.8832 O   0  0  0  0  0  0  0  0  0  0  0  0
    9.9450   45.0740   33.2111 C   0  0  1  0  0  0  0  0  0  0  0  0
   11.0252   46.0301   33.4709 N   0  0  0  0  0  0  0  0  0  0  0  0
    9.7536   44.8544   31.6948 C   0  0  0  0  0  0  0  0  0  0  0  0
    8.7955   45.8410   31.0842 C   0  0  0  0  0  0  0  0  0  0  0  0
    7.4076   45.5985   31.0992 C   0  0  0  0  0  0  0  0  0  0  0  0
    9.2835   46.9878   30.4366 C   0  0  0  0  0  0  0  0  0  0  0  0
    6.5268   46.4987   30.4837 C   0  0  0  0  0  0  0  0  0  0  0  0
    8.4009   47.8876   29.8272 C   0  0  0  0  0  0  0  0  0  0  0  0
    7.0202   47.6531   29.8586 C   0  0  0  0  0  0  0  0  0  0  0  0
    6.1410   48.5472   29.2429 O   0  0  0  0  0  0  0  0  0  0  0  0
    5.4922   49.6265   29.9233 C   0  0  2  0  0  0  0  0  0  0  0  0
    6.4601   50.7856   30.1820 C   0  0  0  0  0  0  0  0  0  0  0  0
    4.7058   49.1384   31.1401 C   0  0  0  0  0  0  0  0  0  0  0  0
    3.3528   48.7735   30.9238 C   0  0  0  0  0  0  0  0  0  0  0  0
    5.2747   48.9285   32.4446 C   0  0  0  0  0  0  0  0  0  0  0  0
    2.6274   48.2318   31.9767 C   0  0  0  0  0  0  0  0  0  0  0  0
    4.4911   48.3665   33.4747 C   0  0  0  0  0  0  0  0  0  0  0  0
    6.6239   49.2809   32.7540 N   0  0  0  0  0  0  0  0  0  0  0  0
    1.3120   47.8089   31.9855 O   0  0  0  0  0  0  0  0  0  0  0  0
    3.1730   48.0352   33.1977 C   0  0  0  0  0  0  0  0  0  0  0  0
    7.5201   48.2800   33.0460 O   0  0  0  0  0  0  0  0  0  0  0  0
    6.8647   50.4352   33.1623 O   0  0  0  0  0  0  0  0  0  0  0  0
    1.0143   47.3174   33.2995 C   0  0  0  0  0  0  0  0  0  0  0  0
    2.2305   47.4803   34.0418 O   0  0  0  0  0  0  0  0  0  0  0  0
    8.8123   40.1845   34.2134 O   0  0  0  0  0  0  0  0  0  0  0  0
   11.2402   40.7945   33.3688 O   0  0  0  0  0  0  0  0  0  0  0  0
   10.9142   40.6898   31.9970 C   0  0  0  0  0  0  0  0  0  0  0  0
   11.5260   39.3884   31.4376 C   0  0  0  0  0  0  0  0  0  0  0  0
   12.7504   39.0888   32.0816 O   0  0  0  0  0  0  0  0  0  0  0  0
   10.6114   38.1909   31.6460 C   0  0  0  0  0  0  0  0  0  0  0  0
   12.9357   37.6813   32.0303 C   0  0  0  0  0  0  0  0  0  0  0  0
    9.6145   38.0858   30.6534 O   0  0  0  0  0  0  0  0  0  0  0  0
   11.5769   37.0148   31.7012 C   0  0  0  0  0  0  0  0  0  0  0  0
   13.4849   37.2112   33.3247 N   0  0  0  0  0  0  0  0  0  0  0  0
   11.6193   36.3261   30.4724 O   0  0  0  0  0  0  0  0  0  0  0  0
   14.4802   36.3313   33.5730 C   0  0  0  0  0  0  0  0  0  0  0  0
   13.1141   37.6268   34.5698 C   0  0  0  0  0  0  0  0  0  0  0  0
   15.2075   35.6151   32.6741 N   0  0  0  0  0  0  0  0  0  0  0  0
   14.6761   36.2300   34.9184 C   0  0  0  0  0  0  0  0  0  0  0  0
   13.8220   37.0445   35.5789 N   0  0  0  0  0  0  0  0  0  0  0  0
   16.1642   34.7600   33.1547 C   0  0  0  0  0  0  0  0  0  0  0  0
   15.6529   35.3503   35.4131 C   0  0  0  0  0  0  0  0  0  0  0  0
   16.3797   34.6314   34.5042 N   0  0  0  0  0  0  0  0  0  0  0  0
   15.9004   35.1930   36.8090 N   0  0  0  0  0  0  0  0  0  0  0  0
    8.9982   45.4384   33.6716 H   0  0  0  0  0  0  0  0  0  0  0  0
   11.0486   46.2284   34.4983 H   0  0  0  0  0  0  0  0  0  0  0  0
   10.7737   46.9378   33.0165 H   0  0  0  0  0  0  0  0  0  0  0  0
    9.3642   43.8356   31.4711 H   0  0  0  0  0  0  0  0  0  0  0  0
   10.7409   44.9081   31.1839 H   0  0  0  0  0  0  0  0  0  0  0  0
    7.0124   44.7134   31.5821 H   0  0  0  0  0  0  0  0  0  0  0  0
   10.3476   47.1856   30.3996 H   0  0  0  0  0  0  0  0  0  0  0  0
    5.4623   46.3024   30.4983 H   0  0  0  0  0  0  0  0  0  0  0  0
    8.7903   48.7658   29.3283 H   0  0  0  0  0  0  0  0  0  0  0  0
    4.7554   50.0427   29.2010 H   0  0  0  0  0  0  0  0  0  0  0  0
    5.9812   51.5546   30.8246 H   0  0  0  0  0  0  0  0  0  0  0  0
    6.7313   51.2623   29.2159 H   0  0  0  0  0  0  0  0  0  0  0  0
    7.4032   50.4363   30.6449 H   0  0  0  0  0  0  0  0  0  0  0  0
    2.8820   48.8885   29.9555 H   0  0  0  0  0  0  0  0  0  0  0  0
    4.9013   48.2001   34.4626 H   0  0  0  0  0  0  0  0  0  0  0  0
    0.7342   46.2441   33.2537 H   0  0  0  0  0  0  0  0  0  0  0  0
    0.2015   47.9178   33.7592 H   0  0  0  0  0  0  0  0  0  0  0  0
   11.3777   41.5526   31.4723 H   0  0  0  0  0  0  0  0  0  0  0  0
    9.8231   40.7190   31.7645 H   0  0  0  0  0  0  0  0  0  0  0  0
   11.7283   39.5311   30.3515 H   0  0  0  0  0  0  0  0  0  0  0  0
   10.1127   38.2734   32.6376 H   0  0  0  0  0  0  0  0  0  0  0  0
   13.6692   37.4567   31.2242 H   0  0  0  0  0  0  0  0  0  0  0  0
   10.0533   38.1118   29.7636 H   0  0  0  0  0  0  0  0  0  0  0  0
   11.2607   36.3148   32.5102 H   0  0  0  0  0  0  0  0  0  0  0  0
   12.1496   35.5023   30.6324 H   0  0  0  0  0  0  0  0  0  0  0  0
   12.3301   38.3524   34.7455 H   0  0  0  0  0  0  0  0  0  0  0  0
   16.7562   34.1781   32.4619 H   0  0  0  0  0  0  0  0  0  0  0  0
   15.3536   35.7357   37.5139 H   0  0  0  0  0  0  0  0  0  0  0  0
   16.6351   34.5298   37.1415 H   0  0  0  0  0  0  0  0  0  0  0  0
  1  2  2  0
  1  3  1  0
  3  4  1  0
  4  5  1  0
  6  1  1  0
  7  6  1  0
  6  8  1  0
  8  9  1  0
  9 10  2  0
 11  9  1  0
 10 12  1  0
 13 11  2  0
 12 14  2  0
 14 13  1  0
 14 15  1  0
 15 16  1  0
 16 17  1  0
 16 18  1  0
 18 19  2  0
 20 18  1  0
 19 21  1  0
 22 20  2  0
 20 23  1  0
 21 24  1  0
 21 25  2  0
 25 22  1  0
 23 26  1  0
 23 27  2  0
 24 28  1  0
 25 29  1  0
 28 29  1  0
  4 30  2  0
  4 31  1  0
 32 31  1  0
 32 33  1  0
 33 34  1  0
 33 35  1  0
 34 36  1  0
 35 37  1  0
 35 38  1  0
 38 36  1  0
 36 39  1  0
 38 40  1  0
 41 39  1  0
 42 39  1  0
 43 41  2  0
 41 44  1  0
 45 42  2  0
 46 43  1  0
 44 47  2  0
 44 45  1  0
 48 46  2  0
 48 47  1  0
 47 49  1  0
  6 50  1  1
  7 51  1  0
  7 52  1  0
  8 53  1  0
  8 54  1  0
 10 55  1  0
 11 56  1  0
 12 57  1  0
 13 58  1  0
 16 59  1  6
 17 60  1  0
 17 61  1  0
 17 62  1  0
 19 63  1  0
 22 64  1  0
 28 65  1  0
 28 66  1  0
 32 67  1  0
 32 68  1  0
 33 69  1  0
 35 70  1  0
 36 71  1  0
 37 72  1  0
 38 73  1  0
 40 74  1  0
 42 75  1  0
 46 76  1  0
 49 77  1  0
 49 78  1  0
M  CHG  3   5  -1  23   1  26  -1
M  END
>  <EmbedRMS>  (206) 
0.0815993637406

$$$$

     RDKit          3D

 78 83  0  0  0  0  0  0  0  0999 V2000
   10.2804   43.7664   33.8251 C   0  0  0  0  0  0  0  0  0  0  0  0
   11.4111   43.5919   34.3667 O   0  0  0  0  0  0  0  0  0  0  0  0
    9.3618   42.7250   33.7346 O   0  0  0  0  0  0  0  0  0  0  0  0
    9.8902   41.2265   34.2932 P   0  0  0  0  0  0  0  0  0  0  0  0
   10.3743   41.4562   35.8824 O   0  0  0  0  0  0  0  0  0  0  0  0
    9.9459   45.0736   33.2113 C   0  0  1  0  0  0  0  0  0  0  0  0
   11.0266   46.0292   33.4706 N   0  0  0  0  0  0  0  0  0  0  0  0
    9.7537   44.8537   31.6951 C   0  0  0  0  0  0  0  0  0  0  0  0
    8.7955   45.8407   31.0851 C   0  0  0  0  0  0  0  0  0  0  0  0
    7.4095   45.6002   31.1003 C   0  0  0  0  0  0  0  0  0  0  0  0
    9.2819   46.9867   30.4400 C   0  0  0  0  0  0  0  0  0  0  0  0
    6.5301   46.5011   30.4847 C   0  0  0  0  0  0  0  0  0  0  0  0
    8.4015   47.8881   29.8303 C   0  0  0  0  0  0  0  0  0  0  0  0
    7.0124   47.6540   29.8480 C   0  0  0  0  0  0  0  0  0  0  0  0
    6.0661   48.5160   29.2638 O   0  0  0  0  0  0  0  0  0  0  0  0
    6.2828   49.7765   28.6160 C   0  0  2  0  0  0  0  0  0  0  0  0
    6.9233   49.5686   27.2347 C   0  0  0  0  0  0  0  0  0  0  0  0
    6.9620   50.7948   29.5339 C   0  0  0  0  0  0  0  0  0  0  0  0
    8.2566   51.2991   29.2291 C   0  0  0  0  0  0  0  0  0  0  0  0
    6.2672   51.3291   30.6758 C   0  0  0  0  0  0  0  0  0  0  0  0
    8.8158   52.2571   30.0630 C   0  0  0  0  0  0  0  0  0  0  0  0
    6.8862   52.3144   31.4777 C   0  0  0  0  0  0  0  0  0  0  0  0
    4.9219   50.9409   31.0016 N   0  0  0  0  0  0  0  0  0  0  0  0
   10.0528   52.8647   29.9628 O   0  0  0  0  0  0  0  0  0  0  0  0
    8.1610   52.7418   31.1402 C   0  0  0  0  0  0  0  0  0  0  0  0
    4.0393   51.8831   31.4775 O   0  0  0  0  0  0  0  0  0  0  0  0
    4.6059   49.7366   31.0719 O   0  0  0  0  0  0  0  0  0  0  0  0
   10.1808   53.7895   31.0513 C   0  0  0  0  0  0  0  0  0  0  0  0
    8.9496   53.6800   31.7781 O   0  0  0  0  0  0  0  0  0  0  0  0
    8.8123   40.1844   34.2131 O   0  0  0  0  0  0  0  0  0  0  0  0
   11.2402   40.7949   33.3666 O   0  0  0  0  0  0  0  0  0  0  0  0
   10.9124   40.6859   31.9952 C   0  0  0  0  0  0  0  0  0  0  0  0
   11.5175   39.3786   31.4405 C   0  0  0  0  0  0  0  0  0  0  0  0
   12.7490   39.0864   32.0753 O   0  0  0  0  0  0  0  0  0  0  0  0
   10.6060   38.1867   31.6656 C   0  0  0  0  0  0  0  0  0  0  0  0
   12.9355   37.6796   32.0292 C   0  0  0  0  0  0  0  0  0  0  0  0
    9.6399   38.0903   30.6471 O   0  0  0  0  0  0  0  0  0  0  0  0
   11.5765   37.0145   31.7044 C   0  0  0  0  0  0  0  0  0  0  0  0
   13.4858   37.2125   33.3244 N   0  0  0  0  0  0  0  0  0  0  0  0
   11.6101   36.3396   30.4673 O   0  0  0  0  0  0  0  0  0  0  0  0
   14.4805   36.3319   33.5729 C   0  0  0  0  0  0  0  0  0  0  0  0
   13.1143   37.6276   34.5694 C   0  0  0  0  0  0  0  0  0  0  0  0
   15.2076   35.6153   32.6741 N   0  0  0  0  0  0  0  0  0  0  0  0
   14.6761   36.2304   34.9184 C   0  0  0  0  0  0  0  0  0  0  0  0
   13.8219   37.0449   35.5786 N   0  0  0  0  0  0  0  0  0  0  0  0
   16.1641   34.7600   33.1548 C   0  0  0  0  0  0  0  0  0  0  0  0
   15.6528   35.3505   35.4132 C   0  0  0  0  0  0  0  0  0  0  0  0
   16.3795   34.6314   34.5043 N   0  0  0  0  0  0  0  0  0  0  0  0
   15.9002   35.1931   36.8091 N   0  0  0  0  0  0  0  0  0  0  0  0
    8.9995   45.4382   33.6724 H   0  0  0  0  0  0  0  0  0  0  0  0
   11.0503   46.2279   34.4980 H   0  0  0  0  0  0  0  0  0  0  0  0
   10.7763   46.9368   33.0155 H   0  0  0  0  0  0  0  0  0  0  0  0
    9.3639   43.8350   31.4717 H   0  0  0  0  0  0  0  0  0  0  0  0
   10.7408   44.9070   31.1836 H   0  0  0  0  0  0  0  0  0  0  0  0
    7.0134   44.7161   31.5844 H   0  0  0  0  0  0  0  0  0  0  0  0
   10.3463   47.1844   30.4051 H   0  0  0  0  0  0  0  0  0  0  0  0
    5.4658   46.3037   30.5065 H   0  0  0  0  0  0  0  0  0  0  0  0
    8.8236   48.7487   29.3465 H   0  0  0  0  0  0  0  0  0  0  0  0
    5.2769   50.1942   28.3930 H   0  0  0  0  0  0  0  0  0  0  0  0
    7.0287   50.5420   26.7098 H   0  0  0  0  0  0  0  0  0  0  0  0
    6.2674   48.9169   26.6193 H   0  0  0  0  0  0  0  0  0  0  0  0
    7.9143   49.0793   27.3020 H   0  0  0  0  0  0  0  0  0  0  0  0
    8.8257   50.9638   28.3741 H   0  0  0  0  0  0  0  0  0  0  0  0
    6.3858   52.7333   32.3414 H   0  0  0  0  0  0  0  0  0  0  0  0
   11.0353   53.5035   31.6998 H   0  0  0  0  0  0  0  0  0  0  0  0
   10.3073   54.8225   30.6648 H   0  0  0  0  0  0  0  0  0  0  0  0
   11.3801   41.5436   31.4661 H   0  0  0  0  0  0  0  0  0  0  0  0
    9.8214   40.7199   31.7634 H   0  0  0  0  0  0  0  0  0  0  0  0
   11.6999   39.5040   30.3482 H   0  0  0  0  0  0  0  0  0  0  0  0
   10.1085   38.2766   32.6603 H   0  0  0  0  0  0  0  0  0  0  0  0
   13.6679   37.4521   31.2229 H   0  0  0  0  0  0  0  0  0  0  0  0
    9.0016   37.3867   30.9349 H   0  0  0  0  0  0  0  0  0  0  0  0
   11.2666   36.3062   32.5084 H   0  0  0  0  0  0  0  0  0  0  0  0
   12.1390   35.5126   30.6150 H   0  0  0  0  0  0  0  0  0  0  0  0
   12.3300   38.3529   34.7449 H   0  0  0  0  0  0  0  0  0  0  0  0
   16.7560   34.1779   32.4621 H   0  0  0  0  0  0  0  0  0  0  0  0
   15.3534   35.7359   37.5140 H   0  0  0  0  0  0  0  0  0  0  0  0
   16.6347   34.5298   37.1416 H   0  0  0  0  0  0  0  0  0  0  0  0
  1  2  2  0
  1  3  1  0
  3  4  1  0
  4  5  1  0
  6  1  1  0
  7  6  1  0
  6  8  1  0
  8  9  1  0
  9 10  2  0
 11  9  1  0
 10 12  1  0
 13 11  2  0
 12 14  2  0
 14 13  1  0
 14 15  1  0
 15 16  1  0
 16 17  1  0
 16 18  1  0
 18 19  2  0
 20 18  1  0
 19 21  1  0
 22 20  2  0
 20 23  1  0
 21 24  1  0
 21 25  2  0
 25 22  1  0
 23 26  1  0
 23 27  2  0
 24 28  1  0
 25 29  1  0
 28 29  1  0
  4 30  2  0
  4 31  1  0
 32 31  1  0
 32 33  1  0
 33 34  1  0
 33 35  1  0
 34 36  1  0
 35 37  1  0
 35 38  1  0
 38 36  1  0
 36 39  1  0
 38 40  1  0
 41 39  1  0
 42 39  1  0
 43 41  2  0
 41 44  1  0
 45 42  2  0
 46 43  1  0
 44 47  2  0
 44 45  1  0
 48 46  2  0
 48 47  1  0
 47 49  1  0
  6 50  1  1
  7 51  1  0
  7 52  1  0
  8 53  1  0
  8 54  1  0
 10 55  1  0
 11 56  1  0
 12 57  1  0
 13 58  1  0
 16 59  1  6
 17 60  1  0
 17 61  1  0
 17 62  1  0
 19 63  1  0
 22 64  1  0
 28 65  1  0
 28 66  1  0
 32 67  1  0
 32 68  1  0
 33 69  1  0
 35 70  1  0
 36 71  1  0
 37 72  1  0
 38 73  1  0
 40 74  1  0
 42 75  1  0
 46 76  1  0
 49 77  1  0
 49 78  1  0
M  CHG  3   5  -1  23   1  26  -1
M  END
>  <EmbedRMS>  (207) 
0.0822101786854

$$$$

     RDKit          3D

 78 83  0  0  0  0  0  0  0  0999 V2000
   10.2803   43.7665   33.8252 C   0  0  0  0  0  0  0  0  0  0  0  0
   11.4111   43.5918   34.3667 O   0  0  0  0  0  0  0  0  0  0  0  0
    9.3616   42.7251   33.7349 O   0  0  0  0  0  0  0  0  0  0  0  0
    9.8899   41.2268   34.2940 P   0  0  0  0  0  0  0  0  0  0  0  0
   10.3739   41.4565   35.8831 O   0  0  0  0  0  0  0  0  0  0  0  0
    9.9459   45.0736   33.2114 C   0  0  1  0  0  0  0  0  0  0  0  0
   11.0267   46.0291   33.4706 N   0  0  0  0  0  0  0  0  0  0  0  0
    9.7534   44.8538   31.6952 C   0  0  0  0  0  0  0  0  0  0  0  0
    8.7954   45.8412   31.0852 C   0  0  0  0  0  0  0  0  0  0  0  0
    7.4089   45.6004   31.1005 C   0  0  0  0  0  0  0  0  0  0  0  0
    9.2827   46.9874   30.4398 C   0  0  0  0  0  0  0  0  0  0  0  0
    6.5287   46.5005   30.4846 C   0  0  0  0  0  0  0  0  0  0  0  0
    8.4027   47.8888   29.8294 C   0  0  0  0  0  0  0  0  0  0  0  0
    7.0127   47.6526   29.8490 C   0  0  0  0  0  0  0  0  0  0  0  0
    6.0802   48.5158   29.2497 O   0  0  0  0  0  0  0  0  0  0  0  0
    6.3656   49.7890   28.6645 C   0  0  2  0  0  0  0  0  0  0  0  0
    6.6447   50.8297   29.7574 C   0  0  0  0  0  0  0  0  0  0  0  0
    5.1773   50.2142   27.8206 C   0  0  0  0  0  0  0  0  0  0  0  0
    3.9108   50.3348   28.4456 C   0  0  0  0  0  0  0  0  0  0  0  0
    5.3013   50.5349   26.4280 C   0  0  0  0  0  0  0  0  0  0  0  0
    2.8402   50.8018   27.6943 C   0  0  0  0  0  0  0  0  0  0  0  0
    4.1801   51.0217   25.7183 C   0  0  0  0  0  0  0  0  0  0  0  0
    6.5338   50.3450   25.7192 N   0  0  0  0  0  0  0  0  0  0  0  0
    1.5340   51.0067   28.0951 O   0  0  0  0  0  0  0  0  0  0  0  0
    2.9706   51.1366   26.3901 C   0  0  0  0  0  0  0  0  0  0  0  0
    7.1271   49.1037   25.7039 O   0  0  0  0  0  0  0  0  0  0  0  0
    6.9224   51.2093   24.9068 O   0  0  0  0  0  0  0  0  0  0  0  0
    0.7981   51.5022   26.9683 C   0  0  0  0  0  0  0  0  0  0  0  0
    1.7533   51.5696   25.9006 O   0  0  0  0  0  0  0  0  0  0  0  0
    8.8123   40.1845   34.2134 O   0  0  0  0  0  0  0  0  0  0  0  0
   11.2400   40.7954   33.3680 O   0  0  0  0  0  0  0  0  0  0  0  0
   10.9124   40.6877   31.9967 C   0  0  0  0  0  0  0  0  0  0  0  0
   11.5169   39.3811   31.4420 C   0  0  0  0  0  0  0  0  0  0  0  0
   12.7500   39.0881   32.0760 O   0  0  0  0  0  0  0  0  0  0  0  0
   10.6043   38.1893   31.6659 C   0  0  0  0  0  0  0  0  0  0  0  0
   12.9395   37.6814   32.0280 C   0  0  0  0  0  0  0  0  0  0  0  0
    9.6353   38.0951   30.6499 O   0  0  0  0  0  0  0  0  0  0  0  0
   11.5804   37.0191   31.6934 C   0  0  0  0  0  0  0  0  0  0  0  0
   13.4851   37.2119   33.3244 N   0  0  0  0  0  0  0  0  0  0  0  0
   11.6118   36.3189   30.4673 O   0  0  0  0  0  0  0  0  0  0  0  0
   14.4801   36.3316   33.5732 C   0  0  0  0  0  0  0  0  0  0  0  0
   13.1139   37.6277   34.5692 C   0  0  0  0  0  0  0  0  0  0  0  0
   15.2076   35.6154   32.6744 N   0  0  0  0  0  0  0  0  0  0  0  0
   14.6756   36.2303   34.9186 C   0  0  0  0  0  0  0  0  0  0  0  0
   13.8215   37.0450   35.5786 N   0  0  0  0  0  0  0  0  0  0  0  0
   16.1642   34.7602   33.1551 C   0  0  0  0  0  0  0  0  0  0  0  0
   15.6526   35.3505   35.4134 C   0  0  0  0  0  0  0  0  0  0  0  0
   16.3796   34.6316   34.5045 N   0  0  0  0  0  0  0  0  0  0  0  0
   15.9001   35.1933   36.8093 N   0  0  0  0  0  0  0  0  0  0  0  0
    8.9996   45.4383   33.6725 H   0  0  0  0  0  0  0  0  0  0  0  0
   11.0505   46.2278   34.4980 H   0  0  0  0  0  0  0  0  0  0  0  0
   10.7765   46.9368   33.0156 H   0  0  0  0  0  0  0  0  0  0  0  0
    9.3634   43.8352   31.4718 H   0  0  0  0  0  0  0  0  0  0  0  0
   10.7405   44.9069   31.1836 H   0  0  0  0  0  0  0  0  0  0  0  0
    7.0132   44.7158   31.5842 H   0  0  0  0  0  0  0  0  0  0  0  0
   10.3472   47.1846   30.4050 H   0  0  0  0  0  0  0  0  0  0  0  0
    5.4645   46.3024   30.5034 H   0  0  0  0  0  0  0  0  0  0  0  0
    8.8208   48.7564   29.3410 H   0  0  0  0  0  0  0  0  0  0  0  0
    7.2734   49.7151   28.0384 H   0  0  0  0  0  0  0  0  0  0  0  0
    5.8086   50.8749   30.4863 H   0  0  0  0  0  0  0  0  0  0  0  0
    6.7836   51.8335   29.3018 H   0  0  0  0  0  0  0  0  0  0  0  0
    7.5700   50.5726   30.3121 H   0  0  0  0  0  0  0  0  0  0  0  0
    3.7672   50.0839   29.4888 H   0  0  0  0  0  0  0  0  0  0  0  0
    4.2456   51.2754   24.6680 H   0  0  0  0  0  0  0  0  0  0  0  0
    0.3958   52.5136   27.1869 H   0  0  0  0  0  0  0  0  0  0  0  0
   -0.0210   50.8003   26.7058 H   0  0  0  0  0  0  0  0  0  0  0  0
   11.3806   41.5456   31.4683 H   0  0  0  0  0  0  0  0  0  0  0  0
    9.8214   40.7221   31.7645 H   0  0  0  0  0  0  0  0  0  0  0  0
   11.6986   39.5087   30.3499 H   0  0  0  0  0  0  0  0  0  0  0  0
   10.1109   38.2737   32.6630 H   0  0  0  0  0  0  0  0  0  0  0  0
   13.6783   37.4562   31.2271 H   0  0  0  0  0  0  0  0  0  0  0  0
    9.0020   37.3859   30.9348 H   0  0  0  0  0  0  0  0  0  0  0  0
   11.2808   36.3052   32.4921 H   0  0  0  0  0  0  0  0  0  0  0  0
   11.8819   36.9599   29.7584 H   0  0  0  0  0  0  0  0  0  0  0  0
   12.3303   38.3538   34.7446 H   0  0  0  0  0  0  0  0  0  0  0  0
   16.7563   34.1783   32.4623 H   0  0  0  0  0  0  0  0  0  0  0  0
   15.3532   35.7359   37.5142 H   0  0  0  0  0  0  0  0  0  0  0  0
   16.6348   34.5301   37.1418 H   0  0  0  0  0  0  0  0  0  0  0  0
  1  2  2  0
  1  3  1  0
  3  4  1  0
  4  5  1  0
  6  1  1  0
  7  6  1  0
  6  8  1  0
  8  9  1  0
  9 10  2  0
 11  9  1  0
 10 12  1  0
 13 11  2  0
 12 14  2  0
 14 13  1  0
 14 15  1  0
 15 16  1  0
 16 17  1  0
 16 18  1  0
 18 19  2  0
 20 18  1  0
 19 21  1  0
 22 20  2  0
 20 23  1  0
 21 24  1  0
 21 25  2  0
 25 22  1  0
 23 26  1  0
 23 27  2  0
 24 28  1  0
 25 29  1  0
 28 29  1  0
  4 30  2  0
  4 31  1  0
 32 31  1  0
 32 33  1  0
 33 34  1  0
 33 35  1  0
 34 36  1  0
 35 37  1  0
 35 38  1  0
 38 36  1  0
 36 39  1  0
 38 40  1  0
 41 39  1  0
 42 39  1  0
 43 41  2  0
 41 44  1  0
 45 42  2  0
 46 43  1  0
 44 47  2  0
 44 45  1  0
 48 46  2  0
 48 47  1  0
 47 49  1  0
  6 50  1  1
  7 51  1  0
  7 52  1  0
  8 53  1  0
  8 54  1  0
 10 55  1  0
 11 56  1  0
 12 57  1  0
 13 58  1  0
 16 59  1  6
 17 60  1  0
 17 61  1  0
 17 62  1  0
 19 63  1  0
 22 64  1  0
 28 65  1  0
 28 66  1  0
 32 67  1  0
 32 68  1  0
 33 69  1  0
 35 70  1  0
 36 71  1  0
 37 72  1  0
 38 73  1  0
 40 74  1  0
 42 75  1  0
 46 76  1  0
 49 77  1  0
 49 78  1  0
M  CHG  3   5  -1  23   1  26  -1
M  END
>  <EmbedRMS>  (208) 
0.0813744176594

$$$$

     RDKit          3D

 78 83  0  0  0  0  0  0  0  0999 V2000
   10.2837   43.7628   33.8278 C   0  0  0  0  0  0  0  0  0  0  0  0
   11.4103   43.5864   34.3767 O   0  0  0  0  0  0  0  0  0  0  0  0
    9.3628   42.7238   33.7358 O   0  0  0  0  0  0  0  0  0  0  0  0
    9.8891   41.2252   34.2949 P   0  0  0  0  0  0  0  0  0  0  0  0
   10.3724   41.4548   35.8843 O   0  0  0  0  0  0  0  0  0  0  0  0
    9.9548   45.0700   33.2064 C   0  0  1  0  0  0  0  0  0  0  0  0
   11.0198   46.0482   33.4568 N   0  0  0  0  0  0  0  0  0  0  0  0
    9.7502   44.8506   31.6925 C   0  0  0  0  0  0  0  0  0  0  0  0
    8.7943   45.8413   31.0868 C   0  0  0  0  0  0  0  0  0  0  0  0
    7.4080   45.6008   31.0998 C   0  0  0  0  0  0  0  0  0  0  0  0
    9.2826   46.9883   30.4450 C   0  0  0  0  0  0  0  0  0  0  0  0
    6.5293   46.5022   30.4843 C   0  0  0  0  0  0  0  0  0  0  0  0
    8.4035   47.8894   29.8327 C   0  0  0  0  0  0  0  0  0  0  0  0
    7.0134   47.6535   29.8470 C   0  0  0  0  0  0  0  0  0  0  0  0
    6.0719   48.5201   29.2615 O   0  0  0  0  0  0  0  0  0  0  0  0
    6.3256   49.7372   28.5467 C   0  0  2  0  0  0  0  0  0  0  0  0
    6.9370   49.4232   27.1719 C   0  0  0  0  0  0  0  0  0  0  0  0
    7.0729   50.7544   29.4113 C   0  0  0  0  0  0  0  0  0  0  0  0
    8.2340   51.4139   28.9225 C   0  0  0  0  0  0  0  0  0  0  0  0
    6.6274   51.0423   30.7488 C   0  0  0  0  0  0  0  0  0  0  0  0
    8.9180   52.2760   29.7686 C   0  0  0  0  0  0  0  0  0  0  0  0
    7.3770   51.9181   31.5659 C   0  0  0  0  0  0  0  0  0  0  0  0
    5.4363   50.4523   31.2970 N   0  0  0  0  0  0  0  0  0  0  0  0
   10.0651   53.0013   29.5090 O   0  0  0  0  0  0  0  0  0  0  0  0
    8.5111   52.5134   31.0350 C   0  0  0  0  0  0  0  0  0  0  0  0
    5.3799   50.1433   32.6366 O   0  0  0  0  0  0  0  0  0  0  0  0
    4.3872   50.3979   30.6236 O   0  0  0  0  0  0  0  0  0  0  0  0
   10.3977   53.7416   30.6912 C   0  0  0  0  0  0  0  0  0  0  0  0
    9.3790   53.4011   31.6413 O   0  0  0  0  0  0  0  0  0  0  0  0
    8.8113   40.1834   34.2132 O   0  0  0  0  0  0  0  0  0  0  0  0
   11.2398   40.7938   33.3702 O   0  0  0  0  0  0  0  0  0  0  0  0
   10.9144   40.6912   31.9983 C   0  0  0  0  0  0  0  0  0  0  0  0
   11.5270   39.3911   31.4385 C   0  0  0  0  0  0  0  0  0  0  0  0
   12.7520   39.0911   32.0836 O   0  0  0  0  0  0  0  0  0  0  0  0
   10.6114   38.1931   31.6451 C   0  0  0  0  0  0  0  0  0  0  0  0
   12.9413   37.6837   32.0297 C   0  0  0  0  0  0  0  0  0  0  0  0
    9.6064   38.0877   30.6599 O   0  0  0  0  0  0  0  0  0  0  0  0
   11.5822   37.0197   31.6876 C   0  0  0  0  0  0  0  0  0  0  0  0
   13.4840   37.2104   33.3254 N   0  0  0  0  0  0  0  0  0  0  0  0
   11.6179   36.3071   30.4690 O   0  0  0  0  0  0  0  0  0  0  0  0
   14.4797   36.3309   33.5738 C   0  0  0  0  0  0  0  0  0  0  0  0
   13.1136   37.6269   34.5702 C   0  0  0  0  0  0  0  0  0  0  0  0
   15.2074   35.6152   32.6747 N   0  0  0  0  0  0  0  0  0  0  0  0
   14.6756   36.2298   34.9190 C   0  0  0  0  0  0  0  0  0  0  0  0
   13.8217   37.0445   35.5793 N   0  0  0  0  0  0  0  0  0  0  0  0
   16.1643   34.7603   33.1551 C   0  0  0  0  0  0  0  0  0  0  0  0
   15.6528   35.3503   35.4136 C   0  0  0  0  0  0  0  0  0  0  0  0
   16.3798   34.6316   34.5046 N   0  0  0  0  0  0  0  0  0  0  0  0
   15.9004   35.1930   36.8094 N   0  0  0  0  0  0  0  0  0  0  0  0
    9.0098   45.4350   33.6670 H   0  0  0  0  0  0  0  0  0  0  0  0
   11.1133   46.1995   34.4880 H   0  0  0  0  0  0  0  0  0  0  0  0
   11.9348   45.6933   33.0925 H   0  0  0  0  0  0  0  0  0  0  0  0
    9.3511   43.8340   31.4765 H   0  0  0  0  0  0  0  0  0  0  0  0
   10.7305   44.8920   31.1676 H   0  0  0  0  0  0  0  0  0  0  0  0
    7.0111   44.7161   31.5821 H   0  0  0  0  0  0  0  0  0  0  0  0
   10.3469   47.1877   30.4175 H   0  0  0  0  0  0  0  0  0  0  0  0
    5.4648   46.3055   30.5048 H   0  0  0  0  0  0  0  0  0  0  0  0
    8.8252   48.7594   29.3584 H   0  0  0  0  0  0  0  0  0  0  0  0
    5.3365   50.1888   28.3216 H   0  0  0  0  0  0  0  0  0  0  0  0
    7.9656   49.0204   27.2580 H   0  0  0  0  0  0  0  0  0  0  0  0
    6.9512   50.3361   26.5391 H   0  0  0  0  0  0  0  0  0  0  0  0
    6.3127   48.6640   26.6547 H   0  0  0  0  0  0  0  0  0  0  0  0
    8.6193   51.2565   27.9258 H   0  0  0  0  0  0  0  0  0  0  0  0
    7.0711   52.1445   32.5792 H   0  0  0  0  0  0  0  0  0  0  0  0
   11.3942   53.4323   31.0705 H   0  0  0  0  0  0  0  0  0  0  0  0
   10.3765   54.8314   30.4807 H   0  0  0  0  0  0  0  0  0  0  0  0
    9.8235   40.7202   31.7651 H   0  0  0  0  0  0  0  0  0  0  0  0
   11.3780   41.5548   31.4750 H   0  0  0  0  0  0  0  0  0  0  0  0
   11.7311   39.5363   30.3531 H   0  0  0  0  0  0  0  0  0  0  0  0
   10.1203   38.2695   32.6410 H   0  0  0  0  0  0  0  0  0  0  0  0
   13.6850   37.4638   31.2321 H   0  0  0  0  0  0  0  0  0  0  0  0
   10.0251   38.1792   29.7654 H   0  0  0  0  0  0  0  0  0  0  0  0
   11.2757   36.3135   32.4907 H   0  0  0  0  0  0  0  0  0  0  0  0
   11.9838   36.9111   29.7708 H   0  0  0  0  0  0  0  0  0  0  0  0
   12.3307   38.3536   34.7457 H   0  0  0  0  0  0  0  0  0  0  0  0
   16.7566   34.1787   32.4623 H   0  0  0  0  0  0  0  0  0  0  0  0
   15.3535   35.7355   37.5144 H   0  0  0  0  0  0  0  0  0  0  0  0
   16.6353   34.5301   37.1419 H   0  0  0  0  0  0  0  0  0  0  0  0
  1  2  2  0
  1  3  1  0
  3  4  1  0
  4  5  1  0
  6  1  1  0
  7  6  1  0
  6  8  1  0
  8  9  1  0
  9 10  2  0
 11  9  1  0
 10 12  1  0
 13 11  2  0
 12 14  2  0
 14 13  1  0
 14 15  1  0
 15 16  1  0
 16 17  1  0
 16 18  1  0
 18 19  2  0
 20 18  1  0
 19 21  1  0
 22 20  2  0
 20 23  1  0
 21 24  1  0
 21 25  2  0
 25 22  1  0
 23 26  1  0
 23 27  2  0
 24 28  1  0
 25 29  1  0
 28 29  1  0
  4 30  2  0
  4 31  1  0
 32 31  1  0
 32 33  1  0
 33 34  1  0
 33 35  1  0
 34 36  1  0
 35 37  1  0
 35 38  1  0
 38 36  1  0
 36 39  1  0
 38 40  1  0
 41 39  1  0
 42 39  1  0
 43 41  2  0
 41 44  1  0
 45 42  2  0
 46 43  1  0
 44 47  2  0
 44 45  1  0
 48 46  2  0
 48 47  1  0
 47 49  1  0
  6 50  1  1
  7 51  1  0
  7 52  1  0
  8 53  1  0
  8 54  1  0
 10 55  1  0
 11 56  1  0
 12 57  1  0
 13 58  1  0
 16 59  1  6
 17 60  1  0
 17 61  1  0
 17 62  1  0
 19 63  1  0
 22 64  1  0
 28 65  1  0
 28 66  1  0
 32 67  1  0
 32 68  1  0
 33 69  1  0
 35 70  1  0
 36 71  1  0
 37 72  1  0
 38 73  1  0
 40 74  1  0
 42 75  1  0
 46 76  1  0
 49 77  1  0
 49 78  1  0
M  CHG  3   5  -1  23   1  26  -1
M  END
>  <EmbedRMS>  (209) 
0.0817363870098

$$$$

     RDKit          3D

 78 83  0  0  0  0  0  0  0  0999 V2000
   10.2804   43.7664   33.8251 C   0  0  0  0  0  0  0  0  0  0  0  0
   11.4111   43.5918   34.3667 O   0  0  0  0  0  0  0  0  0  0  0  0
    9.3618   42.7249   33.7346 O   0  0  0  0  0  0  0  0  0  0  0  0
    9.8899   41.2266   34.2940 P   0  0  0  0  0  0  0  0  0  0  0  0
   10.3735   41.4566   35.8832 O   0  0  0  0  0  0  0  0  0  0  0  0
    9.9459   45.0736   33.2113 C   0  0  1  0  0  0  0  0  0  0  0  0
   11.0267   46.0291   33.4706 N   0  0  0  0  0  0  0  0  0  0  0  0
    9.7535   44.8539   31.6951 C   0  0  0  0  0  0  0  0  0  0  0  0
    8.7954   45.8412   31.0852 C   0  0  0  0  0  0  0  0  0  0  0  0
    7.4088   45.6004   31.1006 C   0  0  0  0  0  0  0  0  0  0  0  0
    9.2828   46.9875   30.4398 C   0  0  0  0  0  0  0  0  0  0  0  0
    6.5286   46.5006   30.4846 C   0  0  0  0  0  0  0  0  0  0  0  0
    8.4026   47.8889   29.8294 C   0  0  0  0  0  0  0  0  0  0  0  0
    7.0129   47.6523   29.8491 C   0  0  0  0  0  0  0  0  0  0  0  0
    6.0807   48.5155   29.2501 O   0  0  0  0  0  0  0  0  0  0  0  0
    6.3647   49.7880   28.6631 C   0  0  2  0  0  0  0  0  0  0  0  0
    6.6707   50.8387   29.7373 C   0  0  0  0  0  0  0  0  0  0  0  0
    5.2084   50.2515   27.7928 C   0  0  0  0  0  0  0  0  0  0  0  0
    5.5225   51.0651   26.6763 C   0  0  0  0  0  0  0  0  0  0  0  0
    3.8365   49.8857   28.0260 C   0  0  0  0  0  0  0  0  0  0  0  0
    4.4972   51.4579   25.8267 C   0  0  0  0  0  0  0  0  0  0  0  0
    2.8387   50.3039   27.1153 C   0  0  0  0  0  0  0  0  0  0  0  0
    3.4362   49.1057   29.1635 N   0  0  0  0  0  0  0  0  0  0  0  0
    4.5761   52.2361   24.6878 O   0  0  0  0  0  0  0  0  0  0  0  0
    3.2130   51.0898   26.0344 C   0  0  0  0  0  0  0  0  0  0  0  0
    3.8075   49.4878   30.4310 O   0  0  0  0  0  0  0  0  0  0  0  0
    2.5700   48.2163   29.0333 O   0  0  0  0  0  0  0  0  0  0  0  0
    3.2539   52.3639   24.1471 C   0  0  0  0  0  0  0  0  0  0  0  0
    2.4142   51.6168   25.0378 O   0  0  0  0  0  0  0  0  0  0  0  0
    8.8123   40.1844   34.2134 O   0  0  0  0  0  0  0  0  0  0  0  0
   11.2402   40.7944   33.3689 O   0  0  0  0  0  0  0  0  0  0  0  0
   10.9142   40.6898   31.9971 C   0  0  0  0  0  0  0  0  0  0  0  0
   11.5260   39.3884   31.4376 C   0  0  0  0  0  0  0  0  0  0  0  0
   12.7504   39.0888   32.0816 O   0  0  0  0  0  0  0  0  0  0  0  0
   10.6114   38.1909   31.6460 C   0  0  0  0  0  0  0  0  0  0  0  0
   12.9357   37.6812   32.0303 C   0  0  0  0  0  0  0  0  0  0  0  0
    9.6145   38.0858   30.6534 O   0  0  0  0  0  0  0  0  0  0  0  0
   11.5769   37.0148   31.7012 C   0  0  0  0  0  0  0  0  0  0  0  0
   13.4849   37.2112   33.3247 N   0  0  0  0  0  0  0  0  0  0  0  0
   11.6193   36.3261   30.4724 O   0  0  0  0  0  0  0  0  0  0  0  0
   14.4802   36.3313   33.5730 C   0  0  0  0  0  0  0  0  0  0  0  0
   13.1141   37.6268   34.5698 C   0  0  0  0  0  0  0  0  0  0  0  0
   15.2075   35.6151   32.6741 N   0  0  0  0  0  0  0  0  0  0  0  0
   14.6761   36.2300   34.9184 C   0  0  0  0  0  0  0  0  0  0  0  0
   13.8221   37.0445   35.5789 N   0  0  0  0  0  0  0  0  0  0  0  0
   16.1642   34.7600   33.1547 C   0  0  0  0  0  0  0  0  0  0  0  0
   15.6529   35.3503   35.4131 C   0  0  0  0  0  0  0  0  0  0  0  0
   16.3798   34.6314   34.5042 N   0  0  0  0  0  0  0  0  0  0  0  0
   15.9004   35.1930   36.8090 N   0  0  0  0  0  0  0  0  0  0  0  0
    8.9996   45.4382   33.6725 H   0  0  0  0  0  0  0  0  0  0  0  0
   10.7764   46.9368   33.0157 H   0  0  0  0  0  0  0  0  0  0  0  0
   11.0505   46.2277   34.4980 H   0  0  0  0  0  0  0  0  0  0  0  0
    9.3634   43.8353   31.4717 H   0  0  0  0  0  0  0  0  0  0  0  0
   10.7405   44.9069   31.1836 H   0  0  0  0  0  0  0  0  0  0  0  0
    7.0131   44.7159   31.5843 H   0  0  0  0  0  0  0  0  0  0  0  0
   10.3472   47.1850   30.4053 H   0  0  0  0  0  0  0  0  0  0  0  0
    5.4642   46.3031   30.5036 H   0  0  0  0  0  0  0  0  0  0  0  0
    8.8192   48.7581   29.3419 H   0  0  0  0  0  0  0  0  0  0  0  0
    7.2569   49.6784   28.0084 H   0  0  0  0  0  0  0  0  0  0  0  0
    5.7813   51.0384   30.3677 H   0  0  0  0  0  0  0  0  0  0  0  0
    7.4961   50.4992   30.3953 H   0  0  0  0  0  0  0  0  0  0  0  0
    6.9825   51.7906   29.2570 H   0  0  0  0  0  0  0  0  0  0  0  0
    6.5399   51.3731   26.4696 H   0  0  0  0  0  0  0  0  0  0  0  0
    1.7987   50.0408   27.2602 H   0  0  0  0  0  0  0  0  0  0  0  0
    3.2126   51.9289   23.1265 H   0  0  0  0  0  0  0  0  0  0  0  0
    2.9457   53.4303   24.1340 H   0  0  0  0  0  0  0  0  0  0  0  0
   11.3777   41.5525   31.4723 H   0  0  0  0  0  0  0  0  0  0  0  0
    9.8232   40.7190   31.7645 H   0  0  0  0  0  0  0  0  0  0  0  0
   11.7283   39.5311   30.3515 H   0  0  0  0  0  0  0  0  0  0  0  0
   10.1127   38.2733   32.6376 H   0  0  0  0  0  0  0  0  0  0  0  0
   13.6692   37.4566   31.2242 H   0  0  0  0  0  0  0  0  0  0  0  0
   10.0533   38.1118   29.7636 H   0  0  0  0  0  0  0  0  0  0  0  0
   11.2607   36.3148   32.5102 H   0  0  0  0  0  0  0  0  0  0  0  0
   12.1496   35.5023   30.6324 H   0  0  0  0  0  0  0  0  0  0  0  0
   12.3301   38.3524   34.7455 H   0  0  0  0  0  0  0  0  0  0  0  0
   16.7562   34.1781   32.4619 H   0  0  0  0  0  0  0  0  0  0  0  0
   15.3536   35.7357   37.5139 H   0  0  0  0  0  0  0  0  0  0  0  0
   16.6351   34.5298   37.1415 H   0  0  0  0  0  0  0  0  0  0  0  0
  1  2  2  0
  1  3  1  0
  3  4  1  0
  4  5  1  0
  6  1  1  0
  7  6  1  0
  6  8  1  0
  8  9  1  0
  9 10  2  0
 11  9  1  0
 10 12  1  0
 13 11  2  0
 12 14  2  0
 14 13  1  0
 14 15  1  0
 15 16  1  0
 16 17  1  0
 16 18  1  0
 18 19  2  0
 20 18  1  0
 19 21  1  0
 22 20  2  0
 20 23  1  0
 21 24  1  0
 21 25  2  0
 25 22  1  0
 23 26  1  0
 23 27  2  0
 24 28  1  0
 25 29  1  0
 28 29  1  0
  4 30  2  0
  4 31  1  0
 32 31  1  0
 32 33  1  0
 33 34  1  0
 33 35  1  0
 34 36  1  0
 35 37  1  0
 35 38  1  0
 38 36  1  0
 36 39  1  0
 38 40  1  0
 41 39  1  0
 42 39  1  0
 43 41  2  0
 41 44  1  0
 45 42  2  0
 46 43  1  0
 44 47  2  0
 44 45  1  0
 48 46  2  0
 48 47  1  0
 47 49  1  0
  6 50  1  1
  7 51  1  0
  7 52  1  0
  8 53  1  0
  8 54  1  0
 10 55  1  0
 11 56  1  0
 12 57  1  0
 13 58  1  0
 16 59  1  6
 17 60  1  0
 17 61  1  0
 17 62  1  0
 19 63  1  0
 22 64  1  0
 28 65  1  0
 28 66  1  0
 32 67  1  0
 32 68  1  0
 33 69  1  0
 35 70  1  0
 36 71  1  0
 37 72  1  0
 38 73  1  0
 40 74  1  0
 42 75  1  0
 46 76  1  0
 49 77  1  0
 49 78  1  0
M  CHG  3   5  -1  23   1  26  -1
M  END
>  <EmbedRMS>  (210) 
0.0814362273181

$$$$

     RDKit          3D

 78 83  0  0  0  0  0  0  0  0999 V2000
   10.2838   43.7627   33.8276 C   0  0  0  0  0  0  0  0  0  0  0  0
   11.4102   43.5864   34.3767 O   0  0  0  0  0  0  0  0  0  0  0  0
    9.3631   42.7236   33.7354 O   0  0  0  0  0  0  0  0  0  0  0  0
    9.8895   41.2249   34.2944 P   0  0  0  0  0  0  0  0  0  0  0  0
   10.3727   41.4547   35.8839 O   0  0  0  0  0  0  0  0  0  0  0  0
    9.9547   45.0699   33.2061 C   0  0  1  0  0  0  0  0  0  0  0  0
   11.0196   46.0481   33.4567 N   0  0  0  0  0  0  0  0  0  0  0  0
    9.7504   44.8504   31.6921 C   0  0  0  0  0  0  0  0  0  0  0  0
    8.7944   45.8407   31.0857 C   0  0  0  0  0  0  0  0  0  0  0  0
    7.4078   45.6012   31.1004 C   0  0  0  0  0  0  0  0  0  0  0  0
    9.2829   46.9890   30.4459 C   0  0  0  0  0  0  0  0  0  0  0  0
    6.5286   46.5034   30.4863 C   0  0  0  0  0  0  0  0  0  0  0  0
    8.4034   47.8902   29.8345 C   0  0  0  0  0  0  0  0  0  0  0  0
    7.0141   47.6510   29.8438 C   0  0  0  0  0  0  0  0  0  0  0  0
    6.0767   48.5203   29.2514 O   0  0  0  0  0  0  0  0  0  0  0  0
    6.3323   49.5779   28.3118 C   0  0  2  0  0  0  0  0  0  0  0  0
    7.1510   49.0510   27.1151 C   0  0  0  0  0  0  0  0  0  0  0  0
    6.9317   50.8305   28.9574 C   0  0  0  0  0  0  0  0  0  0  0  0
    7.1812   50.8636   30.3559 C   0  0  0  0  0  0  0  0  0  0  0  0
    7.2412   51.9999   28.1787 C   0  0  0  0  0  0  0  0  0  0  0  0
    7.7998   51.9813   30.8995 C   0  0  0  0  0  0  0  0  0  0  0  0
    7.8877   53.1000   28.7849 C   0  0  0  0  0  0  0  0  0  0  0  0
    6.8774   52.1068   26.7949 N   0  0  0  0  0  0  0  0  0  0  0  0
    8.1553   52.2103   32.2149 O   0  0  0  0  0  0  0  0  0  0  0  0
    8.1478   53.0473   30.1458 C   0  0  0  0  0  0  0  0  0  0  0  0
    7.7255   52.7361   25.9130 O   0  0  0  0  0  0  0  0  0  0  0  0
    5.7069   51.8648   26.4359 O   0  0  0  0  0  0  0  0  0  0  0  0
    8.7694   53.5041   32.2884 C   0  0  0  0  0  0  0  0  0  0  0  0
    8.7431   54.0045   30.9448 O   0  0  0  0  0  0  0  0  0  0  0  0
    8.8114   40.1834   34.2130 O   0  0  0  0  0  0  0  0  0  0  0  0
   11.2402   40.7931   33.3696 O   0  0  0  0  0  0  0  0  0  0  0  0
   10.9151   40.6903   31.9975 C   0  0  0  0  0  0  0  0  0  0  0  0
   11.5252   39.3885   31.4375 C   0  0  0  0  0  0  0  0  0  0  0  0
   12.7500   39.0873   32.0798 O   0  0  0  0  0  0  0  0  0  0  0  0
   10.6092   38.1925   31.6469 C   0  0  0  0  0  0  0  0  0  0  0  0
   12.9332   37.6792   32.0294 C   0  0  0  0  0  0  0  0  0  0  0  0
    9.6122   38.0894   30.6542 O   0  0  0  0  0  0  0  0  0  0  0  0
   11.5743   37.0144   31.7024 C   0  0  0  0  0  0  0  0  0  0  0  0
   13.4844   37.2108   33.3241 N   0  0  0  0  0  0  0  0  0  0  0  0
   11.6298   36.3239   30.4740 O   0  0  0  0  0  0  0  0  0  0  0  0
   14.4802   36.3313   33.5726 C   0  0  0  0  0  0  0  0  0  0  0  0
   13.1138   37.6267   34.5692 C   0  0  0  0  0  0  0  0  0  0  0  0
   15.2075   35.6149   32.6739 N   0  0  0  0  0  0  0  0  0  0  0  0
   14.6761   36.2303   34.9181 C   0  0  0  0  0  0  0  0  0  0  0  0
   13.8220   37.0447   35.5785 N   0  0  0  0  0  0  0  0  0  0  0  0
   16.1643   34.7600   33.1547 C   0  0  0  0  0  0  0  0  0  0  0  0
   15.6529   35.3505   35.4130 C   0  0  0  0  0  0  0  0  0  0  0  0
   16.3798   34.6315   34.5042 N   0  0  0  0  0  0  0  0  0  0  0  0
   15.9002   35.1932   36.8090 N   0  0  0  0  0  0  0  0  0  0  0  0
    9.0097   45.4349   33.6665 H   0  0  0  0  0  0  0  0  0  0  0  0
   11.9347   45.6933   33.0924 H   0  0  0  0  0  0  0  0  0  0  0  0
   11.1131   46.1994   34.4879 H   0  0  0  0  0  0  0  0  0  0  0  0
   10.7308   44.8920   31.1674 H   0  0  0  0  0  0  0  0  0  0  0  0
    9.3515   43.8337   31.4761 H   0  0  0  0  0  0  0  0  0  0  0  0
    7.0109   44.7169   31.5835 H   0  0  0  0  0  0  0  0  0  0  0  0
   10.3465   47.1928   30.4256 H   0  0  0  0  0  0  0  0  0  0  0  0
    5.4642   46.3070   30.5067 H   0  0  0  0  0  0  0  0  0  0  0  0
    8.8172   48.7801   29.3873 H   0  0  0  0  0  0  0  0  0  0  0  0
    5.3357   49.8689   27.9196 H   0  0  0  0  0  0  0  0  0  0  0  0
    8.2397   49.2026   27.2601 H   0  0  0  0  0  0  0  0  0  0  0  0
    6.9562   47.9683   26.9620 H   0  0  0  0  0  0  0  0  0  0  0  0
    6.8583   49.5653   26.1779 H   0  0  0  0  0  0  0  0  0  0  0  0
    6.9120   50.0509   31.0141 H   0  0  0  0  0  0  0  0  0  0  0  0
    8.1433   53.9859   28.2178 H   0  0  0  0  0  0  0  0  0  0  0  0
    9.8176   53.4122   32.6426 H   0  0  0  0  0  0  0  0  0  0  0  0
    8.1840   54.1697   32.9568 H   0  0  0  0  0  0  0  0  0  0  0  0
    9.8243   40.7216   31.7641 H   0  0  0  0  0  0  0  0  0  0  0  0
   11.3805   41.5528   31.4740 H   0  0  0  0  0  0  0  0  0  0  0  0
   11.7265   39.5311   30.3512 H   0  0  0  0  0  0  0  0  0  0  0  0
   10.1110   38.2746   32.6387 H   0  0  0  0  0  0  0  0  0  0  0  0
   13.6652   37.4518   31.2226 H   0  0  0  0  0  0  0  0  0  0  0  0
   10.0511   38.1142   29.7644 H   0  0  0  0  0  0  0  0  0  0  0  0
   11.2762   36.3141   32.5189 H   0  0  0  0  0  0  0  0  0  0  0  0
   10.8593   35.6977   30.4639 H   0  0  0  0  0  0  0  0  0  0  0  0
   12.3294   38.3518   34.7449 H   0  0  0  0  0  0  0  0  0  0  0  0
   16.7564   34.1780   32.4620 H   0  0  0  0  0  0  0  0  0  0  0  0
   15.3534   35.7359   37.5138 H   0  0  0  0  0  0  0  0  0  0  0  0
   16.6348   34.5300   37.1416 H   0  0  0  0  0  0  0  0  0  0  0  0
  1  2  2  0
  1  3  1  0
  3  4  1  0
  4  5  1  0
  6  1  1  0
  7  6  1  0
  6  8  1  0
  8  9  1  0
  9 10  2  0
 11  9  1  0
 10 12  1  0
 13 11  2  0
 12 14  2  0
 14 13  1  0
 14 15  1  0
 15 16  1  0
 16 17  1  0
 16 18  1  0
 18 19  2  0
 20 18  1  0
 19 21  1  0
 22 20  2  0
 20 23  1  0
 21 24  1  0
 21 25  2  0
 25 22  1  0
 23 26  1  0
 23 27  2  0
 24 28  1  0
 25 29  1  0
 28 29  1  0
  4 30  2  0
  4 31  1  0
 32 31  1  0
 32 33  1  0
 33 34  1  0
 33 35  1  0
 34 36  1  0
 35 37  1  0
 35 38  1  0
 38 36  1  0
 36 39  1  0
 38 40  1  0
 41 39  1  0
 42 39  1  0
 43 41  2  0
 41 44  1  0
 45 42  2  0
 46 43  1  0
 44 47  2  0
 44 45  1  0
 48 46  2  0
 48 47  1  0
 47 49  1  0
  6 50  1  1
  7 51  1  0
  7 52  1  0
  8 53  1  0
  8 54  1  0
 10 55  1  0
 11 56  1  0
 12 57  1  0
 13 58  1  0
 16 59  1  6
 17 60  1  0
 17 61  1  0
 17 62  1  0
 19 63  1  0
 22 64  1  0
 28 65  1  0
 28 66  1  0
 32 67  1  0
 32 68  1  0
 33 69  1  0
 35 70  1  0
 36 71  1  0
 37 72  1  0
 38 73  1  0
 40 74  1  0
 42 75  1  0
 46 76  1  0
 49 77  1  0
 49 78  1  0
M  CHG  3   5  -1  23   1  26  -1
M  END
>  <EmbedRMS>  (211) 
0.0827440385735

$$$$

     RDKit          3D

 78 83  0  0  0  0  0  0  0  0999 V2000
   10.2837   43.7628   33.8277 C   0  0  0  0  0  0  0  0  0  0  0  0
   11.4103   43.5863   34.3766 O   0  0  0  0  0  0  0  0  0  0  0  0
    9.3628   42.7238   33.7357 O   0  0  0  0  0  0  0  0  0  0  0  0
    9.8890   41.2252   34.2949 P   0  0  0  0  0  0  0  0  0  0  0  0
   10.3723   41.4548   35.8843 O   0  0  0  0  0  0  0  0  0  0  0  0
    9.9548   45.0701   33.2065 C   0  0  1  0  0  0  0  0  0  0  0  0
   11.0198   46.0482   33.4572 N   0  0  0  0  0  0  0  0  0  0  0  0
    9.7505   44.8512   31.6924 C   0  0  0  0  0  0  0  0  0  0  0  0
    8.7944   45.8419   31.0870 C   0  0  0  0  0  0  0  0  0  0  0  0
    7.4077   45.6002   31.1001 C   0  0  0  0  0  0  0  0  0  0  0  0
    9.2827   46.9889   30.4439 C   0  0  0  0  0  0  0  0  0  0  0  0
    6.5259   46.4991   30.4845 C   0  0  0  0  0  0  0  0  0  0  0  0
    8.4010   47.8878   29.8323 C   0  0  0  0  0  0  0  0  0  0  0  0
    7.0193   47.6565   29.8478 C   0  0  0  0  0  0  0  0  0  0  0  0
    6.1812   48.5957   29.2245 O   0  0  0  0  0  0  0  0  0  0  0  0
    4.7513   48.5607   29.2329 C   0  0  2  0  0  0  0  0  0  0  0  0
    4.2282   49.6229   28.2677 C   0  0  0  0  0  0  0  0  0  0  0  0
    4.2188   48.8225   30.6320 C   0  0  0  0  0  0  0  0  0  0  0  0
    4.8136   49.8540   31.3995 C   0  0  0  0  0  0  0  0  0  0  0  0
    3.1773   48.0262   31.2150 C   0  0  0  0  0  0  0  0  0  0  0  0
    4.3927   50.0324   32.7105 C   0  0  0  0  0  0  0  0  0  0  0  0
    2.8027   48.2436   32.5601 C   0  0  0  0  0  0  0  0  0  0  0  0
    2.4872   47.0147   30.4648 N   0  0  0  0  0  0  0  0  0  0  0  0
    4.8374   50.9554   33.6373 O   0  0  0  0  0  0  0  0  0  0  0  0
    3.4339   49.2578   33.2680 C   0  0  0  0  0  0  0  0  0  0  0  0
    2.0766   45.8606   31.0912 O   0  0  0  0  0  0  0  0  0  0  0  0
    2.0518   47.2670   29.3226 O   0  0  0  0  0  0  0  0  0  0  0  0
    4.1089   50.7458   34.8548 C   0  0  0  0  0  0  0  0  0  0  0  0
    3.2232   49.6530   34.5750 O   0  0  0  0  0  0  0  0  0  0  0  0
    8.8112   40.1834   34.2131 O   0  0  0  0  0  0  0  0  0  0  0  0
   11.2398   40.7938   33.3702 O   0  0  0  0  0  0  0  0  0  0  0  0
   10.9144   40.6912   31.9983 C   0  0  0  0  0  0  0  0  0  0  0  0
   11.5270   39.3911   31.4385 C   0  0  0  0  0  0  0  0  0  0  0  0
   12.7520   39.0911   32.0835 O   0  0  0  0  0  0  0  0  0  0  0  0
   10.6113   38.1931   31.6451 C   0  0  0  0  0  0  0  0  0  0  0  0
   12.9413   37.6837   32.0297 C   0  0  0  0  0  0  0  0  0  0  0  0
    9.6064   38.0877   30.6599 O   0  0  0  0  0  0  0  0  0  0  0  0
   11.5822   37.0197   31.6876 C   0  0  0  0  0  0  0  0  0  0  0  0
   13.4840   37.2104   33.3254 N   0  0  0  0  0  0  0  0  0  0  0  0
   11.6179   36.3071   30.4690 O   0  0  0  0  0  0  0  0  0  0  0  0
   14.4797   36.3309   33.5738 C   0  0  0  0  0  0  0  0  0  0  0  0
   13.1137   37.6269   34.5702 C   0  0  0  0  0  0  0  0  0  0  0  0
   15.2074   35.6152   32.6747 N   0  0  0  0  0  0  0  0  0  0  0  0
   14.6756   36.2298   34.9190 C   0  0  0  0  0  0  0  0  0  0  0  0
   13.8217   37.0445   35.5793 N   0  0  0  0  0  0  0  0  0  0  0  0
   16.1643   34.7603   33.1551 C   0  0  0  0  0  0  0  0  0  0  0  0
   15.6528   35.3503   35.4136 C   0  0  0  0  0  0  0  0  0  0  0  0
   16.3798   34.6316   34.5046 N   0  0  0  0  0  0  0  0  0  0  0  0
   15.9004   35.1930   36.8094 N   0  0  0  0  0  0  0  0  0  0  0  0
    9.0098   45.4350   33.6670 H   0  0  0  0  0  0  0  0  0  0  0  0
   11.9349   45.6934   33.0931 H   0  0  0  0  0  0  0  0  0  0  0  0
   11.1130   46.1994   34.4885 H   0  0  0  0  0  0  0  0  0  0  0  0
   10.7309   44.8932   31.1677 H   0  0  0  0  0  0  0  0  0  0  0  0
    9.3518   43.8345   31.4760 H   0  0  0  0  0  0  0  0  0  0  0  0
    7.0127   44.7140   31.5815 H   0  0  0  0  0  0  0  0  0  0  0  0
   10.3467   47.1890   30.4141 H   0  0  0  0  0  0  0  0  0  0  0  0
    5.4683   46.2800   30.5093 H   0  0  0  0  0  0  0  0  0  0  0  0
    8.7937   48.7707   29.3440 H   0  0  0  0  0  0  0  0  0  0  0  0
    4.4295   47.5715   28.8475 H   0  0  0  0  0  0  0  0  0  0  0  0
    4.5949   49.4096   27.2413 H   0  0  0  0  0  0  0  0  0  0  0  0
    3.1175   49.6188   28.2530 H   0  0  0  0  0  0  0  0  0  0  0  0
    4.5824   50.6326   28.5670 H   0  0  0  0  0  0  0  0  0  0  0  0
    5.5971   50.4815   30.9938 H   0  0  0  0  0  0  0  0  0  0  0  0
    2.0252   47.6558   33.0309 H   0  0  0  0  0  0  0  0  0  0  0  0
    4.8043   50.4747   35.6766 H   0  0  0  0  0  0  0  0  0  0  0  0
    3.5262   51.6543   35.1149 H   0  0  0  0  0  0  0  0  0  0  0  0
    9.8235   40.7202   31.7651 H   0  0  0  0  0  0  0  0  0  0  0  0
   11.3780   41.5548   31.4750 H   0  0  0  0  0  0  0  0  0  0  0  0
   11.7311   39.5363   30.3531 H   0  0  0  0  0  0  0  0  0  0  0  0
   10.1203   38.2696   32.6409 H   0  0  0  0  0  0  0  0  0  0  0  0
   13.6850   37.4638   31.2321 H   0  0  0  0  0  0  0  0  0  0  0  0
   10.0251   38.1791   29.7654 H   0  0  0  0  0  0  0  0  0  0  0  0
   11.2757   36.3135   32.4907 H   0  0  0  0  0  0  0  0  0  0  0  0
   11.9838   36.9111   29.7708 H   0  0  0  0  0  0  0  0  0  0  0  0
   12.3307   38.3536   34.7457 H   0  0  0  0  0  0  0  0  0  0  0  0
   16.7566   34.1787   32.4623 H   0  0  0  0  0  0  0  0  0  0  0  0
   16.6353   34.5301   37.1419 H   0  0  0  0  0  0  0  0  0  0  0  0
   15.3535   35.7355   37.5144 H   0  0  0  0  0  0  0  0  0  0  0  0
  1  2  2  0
  1  3  1  0
  3  4  1  0
  4  5  1  0
  6  1  1  0
  7  6  1  0
  6  8  1  0
  8  9  1  0
  9 10  2  0
 11  9  1  0
 10 12  1  0
 13 11  2  0
 12 14  2  0
 14 13  1  0
 14 15  1  0
 15 16  1  0
 16 17  1  0
 16 18  1  0
 18 19  2  0
 20 18  1  0
 19 21  1  0
 22 20  2  0
 20 23  1  0
 21 24  1  0
 21 25  2  0
 25 22  1  0
 23 26  1  0
 23 27  2  0
 24 28  1  0
 25 29  1  0
 28 29  1  0
  4 30  2  0
  4 31  1  0
 32 31  1  0
 32 33  1  0
 33 34  1  0
 33 35  1  0
 34 36  1  0
 35 37  1  0
 35 38  1  0
 38 36  1  0
 36 39  1  0
 38 40  1  0
 41 39  1  0
 42 39  1  0
 43 41  2  0
 41 44  1  0
 45 42  2  0
 46 43  1  0
 44 47  2  0
 44 45  1  0
 48 46  2  0
 48 47  1  0
 47 49  1  0
  6 50  1  1
  7 51  1  0
  7 52  1  0
  8 53  1  0
  8 54  1  0
 10 55  1  0
 11 56  1  0
 12 57  1  0
 13 58  1  0
 16 59  1  6
 17 60  1  0
 17 61  1  0
 17 62  1  0
 19 63  1  0
 22 64  1  0
 28 65  1  0
 28 66  1  0
 32 67  1  0
 32 68  1  0
 33 69  1  0
 35 70  1  0
 36 71  1  0
 37 72  1  0
 38 73  1  0
 40 74  1  0
 42 75  1  0
 46 76  1  0
 49 77  1  0
 49 78  1  0
M  CHG  3   5  -1  23   1  26  -1
M  END
>  <EmbedRMS>  (212) 
0.0817272271126

$$$$

     RDKit          3D

 78 83  0  0  0  0  0  0  0  0999 V2000
   10.2837   43.7662   33.8257 C   0  0  0  0  0  0  0  0  0  0  0  0
   11.4105   43.5931   34.3753 O   0  0  0  0  0  0  0  0  0  0  0  0
    9.3641   42.7254   33.7348 O   0  0  0  0  0  0  0  0  0  0  0  0
    9.8908   41.2265   34.2939 P   0  0  0  0  0  0  0  0  0  0  0  0
   10.3734   41.4558   35.8835 O   0  0  0  0  0  0  0  0  0  0  0  0
    9.9549   45.0696   33.2036 C   0  0  1  0  0  0  0  0  0  0  0  0
   11.0276   46.0324   33.4756 N   0  0  0  0  0  0  0  0  0  0  0  0
    9.7468   44.8480   31.6878 C   0  0  0  0  0  0  0  0  0  0  0  0
    8.7925   45.8406   31.0844 C   0  0  0  0  0  0  0  0  0  0  0  0
    7.4064   45.6012   31.0988 C   0  0  0  0  0  0  0  0  0  0  0  0
    9.2815   46.9878   30.4432 C   0  0  0  0  0  0  0  0  0  0  0  0
    6.5281   46.5026   30.4834 C   0  0  0  0  0  0  0  0  0  0  0  0
    8.4025   47.8901   29.8327 C   0  0  0  0  0  0  0  0  0  0  0  0
    7.0125   47.6534   29.8457 C   0  0  0  0  0  0  0  0  0  0  0  0
    6.0713   48.5181   29.2571 O   0  0  0  0  0  0  0  0  0  0  0  0
    6.3253   49.7346   28.5417 C   0  0  2  0  0  0  0  0  0  0  0  0
    6.9444   49.4209   27.1702 C   0  0  0  0  0  0  0  0  0  0  0  0
    7.0649   50.7549   29.4085 C   0  0  0  0  0  0  0  0  0  0  0  0
    8.2176   51.4287   28.9197 C   0  0  0  0  0  0  0  0  0  0  0  0
    6.6188   51.0323   30.7467 C   0  0  0  0  0  0  0  0  0  0  0  0
    8.8916   52.2979   29.7665 C   0  0  0  0  0  0  0  0  0  0  0  0
    7.3580   51.9168   31.5652 C   0  0  0  0  0  0  0  0  0  0  0  0
    5.4346   50.4238   31.2892 N   0  0  0  0  0  0  0  0  0  0  0  0
   10.0282   53.0393   29.5063 O   0  0  0  0  0  0  0  0  0  0  0  0
    8.4835   52.5278   31.0339 C   0  0  0  0  0  0  0  0  0  0  0  0
    4.2714   50.3856   30.5563 O   0  0  0  0  0  0  0  0  0  0  0  0
    5.3984   50.0927   32.4921 O   0  0  0  0  0  0  0  0  0  0  0  0
   10.3526   53.7821   30.6892 C   0  0  0  0  0  0  0  0  0  0  0  0
    9.3404   53.4261   31.6403 O   0  0  0  0  0  0  0  0  0  0  0  0
    8.8126   40.1848   34.2123 O   0  0  0  0  0  0  0  0  0  0  0  0
   11.2421   40.7941   33.3698 O   0  0  0  0  0  0  0  0  0  0  0  0
   10.9187   40.6910   31.9973 C   0  0  0  0  0  0  0  0  0  0  0  0
   11.5172   39.3814   31.4409 C   0  0  0  0  0  0  0  0  0  0  0  0
   12.7492   39.0855   32.0730 O   0  0  0  0  0  0  0  0  0  0  0  0
   10.6023   38.1908   31.6666 C   0  0  0  0  0  0  0  0  0  0  0  0
   12.9319   37.6781   32.0281 C   0  0  0  0  0  0  0  0  0  0  0  0
    9.6392   38.0798   30.6453 O   0  0  0  0  0  0  0  0  0  0  0  0
   11.5715   37.0166   31.7055 C   0  0  0  0  0  0  0  0  0  0  0  0
   13.4846   37.2121   33.3235 N   0  0  0  0  0  0  0  0  0  0  0  0
   11.6186   36.3383   30.4694 O   0  0  0  0  0  0  0  0  0  0  0  0
   14.4800   36.3320   33.5723 C   0  0  0  0  0  0  0  0  0  0  0  0
   13.1137   37.6275   34.5687 C   0  0  0  0  0  0  0  0  0  0  0  0
   15.2074   35.6155   32.6737 N   0  0  0  0  0  0  0  0  0  0  0  0
   14.6757   36.2306   34.9178 C   0  0  0  0  0  0  0  0  0  0  0  0
   13.8216   37.0452   35.5780 N   0  0  0  0  0  0  0  0  0  0  0  0
   16.1640   34.7602   33.1545 C   0  0  0  0  0  0  0  0  0  0  0  0
   15.6524   35.3507   35.4128 C   0  0  0  0  0  0  0  0  0  0  0  0
   16.3793   34.6316   34.5040 N   0  0  0  0  0  0  0  0  0  0  0  0
   15.8998   35.1934   36.8088 N   0  0  0  0  0  0  0  0  0  0  0  0
    9.0122   45.4320   33.6713 H   0  0  0  0  0  0  0  0  0  0  0  0
   10.7260   46.9691   33.1216 H   0  0  0  0  0  0  0  0  0  0  0  0
   11.8908   45.7663   32.9467 H   0  0  0  0  0  0  0  0  0  0  0  0
    9.3416   43.8329   31.4766 H   0  0  0  0  0  0  0  0  0  0  0  0
   10.7231   44.8810   31.1556 H   0  0  0  0  0  0  0  0  0  0  0  0
    7.0091   44.7167   31.5812 H   0  0  0  0  0  0  0  0  0  0  0  0
   10.3460   47.1860   30.4144 H   0  0  0  0  0  0  0  0  0  0  0  0
    5.4635   46.3059   30.5033 H   0  0  0  0  0  0  0  0  0  0  0  0
    8.8237   48.7618   29.3608 H   0  0  0  0  0  0  0  0  0  0  0  0
    5.3363   50.1829   28.3110 H   0  0  0  0  0  0  0  0  0  0  0  0
    7.9766   49.0284   27.2609 H   0  0  0  0  0  0  0  0  0  0  0  0
    6.3289   48.6542   26.6535 H   0  0  0  0  0  0  0  0  0  0  0  0
    6.9526   50.3316   26.5341 H   0  0  0  0  0  0  0  0  0  0  0  0
    8.6024   51.2790   27.9218 H   0  0  0  0  0  0  0  0  0  0  0  0
    7.0502   52.1364   32.5795 H   0  0  0  0  0  0  0  0  0  0  0  0
   11.3539   53.4858   31.0663 H   0  0  0  0  0  0  0  0  0  0  0  0
   10.3160   54.8718   30.4805 H   0  0  0  0  0  0  0  0  0  0  0  0
   11.3967   41.5458   31.4730 H   0  0  0  0  0  0  0  0  0  0  0  0
    9.8300   40.7412   31.7613 H   0  0  0  0  0  0  0  0  0  0  0  0
   11.6976   39.5067   30.3483 H   0  0  0  0  0  0  0  0  0  0  0  0
   10.1080   38.2649   32.6647 H   0  0  0  0  0  0  0  0  0  0  0  0
   13.6623   37.4468   31.2210 H   0  0  0  0  0  0  0  0  0  0  0  0
    8.8974   38.6945   30.8832 H   0  0  0  0  0  0  0  0  0  0  0  0
   11.2807   36.3074   32.5170 H   0  0  0  0  0  0  0  0  0  0  0  0
   10.8492   35.7110   30.4585 H   0  0  0  0  0  0  0  0  0  0  0  0
   12.3290   38.3523   34.7445 H   0  0  0  0  0  0  0  0  0  0  0  0
   16.7558   34.1780   32.4618 H   0  0  0  0  0  0  0  0  0  0  0  0
   15.3532   35.7360   37.5140 H   0  0  0  0  0  0  0  0  0  0  0  0
   16.6343   34.5300   37.1411 H   0  0  0  0  0  0  0  0  0  0  0  0
  1  2  2  0
  1  3  1  0
  3  4  1  0
  4  5  1  0
  6  1  1  0
  7  6  1  0
  6  8  1  0
  8  9  1  0
  9 10  2  0
 11  9  1  0
 10 12  1  0
 13 11  2  0
 12 14  2  0
 14 13  1  0
 14 15  1  0
 15 16  1  0
 16 17  1  0
 16 18  1  0
 18 19  2  0
 20 18  1  0
 19 21  1  0
 22 20  2  0
 20 23  1  0
 21 24  1  0
 21 25  2  0
 25 22  1  0
 23 26  1  0
 23 27  2  0
 24 28  1  0
 25 29  1  0
 28 29  1  0
  4 30  2  0
  4 31  1  0
 32 31  1  0
 32 33  1  0
 33 34  1  0
 33 35  1  0
 34 36  1  0
 35 37  1  0
 35 38  1  0
 38 36  1  0
 36 39  1  0
 38 40  1  0
 41 39  1  0
 42 39  1  0
 43 41  2  0
 41 44  1  0
 45 42  2  0
 46 43  1  0
 44 47  2  0
 44 45  1  0
 48 46  2  0
 48 47  1  0
 47 49  1  0
  6 50  1  1
  7 51  1  0
  7 52  1  0
  8 53  1  0
  8 54  1  0
 10 55  1  0
 11 56  1  0
 12 57  1  0
 13 58  1  0
 16 59  1  6
 17 60  1  0
 17 61  1  0
 17 62  1  0
 19 63  1  0
 22 64  1  0
 28 65  1  0
 28 66  1  0
 32 67  1  0
 32 68  1  0
 33 69  1  0
 35 70  1  0
 36 71  1  0
 37 72  1  0
 38 73  1  0
 40 74  1  0
 42 75  1  0
 46 76  1  0
 49 77  1  0
 49 78  1  0
M  CHG  3   5  -1  23   1  26  -1
M  END
>  <EmbedRMS>  (213) 
0.0829603219952

$$$$

     RDKit          3D

 78 83  0  0  0  0  0  0  0  0999 V2000
   10.2834   43.7631   33.8277 C   0  0  0  0  0  0  0  0  0  0  0  0
   11.4100   43.5868   34.3765 O   0  0  0  0  0  0  0  0  0  0  0  0
    9.3626   42.7240   33.7357 O   0  0  0  0  0  0  0  0  0  0  0  0
    9.8890   41.2254   34.2949 P   0  0  0  0  0  0  0  0  0  0  0  0
   10.3724   41.4550   35.8842 O   0  0  0  0  0  0  0  0  0  0  0  0
    9.9542   45.0705   33.2064 C   0  0  1  0  0  0  0  0  0  0  0  0
   11.0190   46.0488   33.4571 N   0  0  0  0  0  0  0  0  0  0  0  0
    9.7501   44.8515   31.6923 C   0  0  0  0  0  0  0  0  0  0  0  0
    8.7941   45.8420   31.0866 C   0  0  0  0  0  0  0  0  0  0  0  0
    7.4063   45.5989   31.0984 C   0  0  0  0  0  0  0  0  0  0  0  0
    9.2836   46.9893   30.4418 C   0  0  0  0  0  0  0  0  0  0  0  0
    6.5265   46.4991   30.4818 C   0  0  0  0  0  0  0  0  0  0  0  0
    8.4020   47.8885   29.8294 C   0  0  0  0  0  0  0  0  0  0  0  0
    7.0212   47.6537   29.8580 C   0  0  0  0  0  0  0  0  0  0  0  0
    6.1436   48.5494   29.2423 O   0  0  0  0  0  0  0  0  0  0  0  0
    5.4860   49.6212   29.9261 C   0  0  2  0  0  0  0  0  0  0  0  0
    6.4513   50.7762   30.2133 C   0  0  0  0  0  0  0  0  0  0  0  0
    4.6830   49.1201   31.1262 C   0  0  0  0  0  0  0  0  0  0  0  0
    3.3350   48.7517   30.8875 C   0  0  0  0  0  0  0  0  0  0  0  0
    5.2313   48.9111   32.4392 C   0  0  0  0  0  0  0  0  0  0  0  0
    2.5927   48.2116   31.9296 C   0  0  0  0  0  0  0  0  0  0  0  0
    4.4303   48.3549   33.4589 C   0  0  0  0  0  0  0  0  0  0  0  0
    6.5756   49.2649   32.7668 N   0  0  0  0  0  0  0  0  0  0  0  0
    1.2779   47.7869   31.9175 O   0  0  0  0  0  0  0  0  0  0  0  0
    3.1175   48.0207   33.1607 C   0  0  0  0  0  0  0  0  0  0  0  0
    6.8239   50.5236   33.2620 O   0  0  0  0  0  0  0  0  0  0  0  0
    7.4074   48.3606   32.9836 O   0  0  0  0  0  0  0  0  0  0  0  0
    0.9584   47.3000   33.2280 C   0  0  0  0  0  0  0  0  0  0  0  0
    2.1613   47.4677   33.9906 O   0  0  0  0  0  0  0  0  0  0  0  0
    8.8113   40.1835   34.2131 O   0  0  0  0  0  0  0  0  0  0  0  0
   11.2397   40.7939   33.3702 O   0  0  0  0  0  0  0  0  0  0  0  0
   10.9144   40.6912   31.9983 C   0  0  0  0  0  0  0  0  0  0  0  0
   11.5270   39.3911   31.4385 C   0  0  0  0  0  0  0  0  0  0  0  0
   12.7520   39.0911   32.0836 O   0  0  0  0  0  0  0  0  0  0  0  0
   10.6113   38.1932   31.6451 C   0  0  0  0  0  0  0  0  0  0  0  0
   12.9413   37.6838   32.0297 C   0  0  0  0  0  0  0  0  0  0  0  0
    9.6064   38.0878   30.6598 O   0  0  0  0  0  0  0  0  0  0  0  0
   11.5822   37.0197   31.6877 C   0  0  0  0  0  0  0  0  0  0  0  0
   13.4840   37.2104   33.3254 N   0  0  0  0  0  0  0  0  0  0  0  0
   11.6179   36.3071   30.4690 O   0  0  0  0  0  0  0  0  0  0  0  0
   14.4797   36.3309   33.5738 C   0  0  0  0  0  0  0  0  0  0  0  0
   13.1137   37.6269   34.5702 C   0  0  0  0  0  0  0  0  0  0  0  0
   15.2074   35.6152   32.6747 N   0  0  0  0  0  0  0  0  0  0  0  0
   14.6756   36.2298   34.9190 C   0  0  0  0  0  0  0  0  0  0  0  0
   13.8217   37.0445   35.5793 N   0  0  0  0  0  0  0  0  0  0  0  0
   16.1643   34.7603   33.1551 C   0  0  0  0  0  0  0  0  0  0  0  0
   15.6528   35.3503   35.4136 C   0  0  0  0  0  0  0  0  0  0  0  0
   16.3798   34.6316   34.5046 N   0  0  0  0  0  0  0  0  0  0  0  0
   15.9004   35.1930   36.8094 N   0  0  0  0  0  0  0  0  0  0  0  0
    9.0089   45.4356   33.6666 H   0  0  0  0  0  0  0  0  0  0  0  0
   11.9343   45.6939   33.0934 H   0  0  0  0  0  0  0  0  0  0  0  0
   11.1118   46.2004   34.4884 H   0  0  0  0  0  0  0  0  0  0  0  0
    9.3514   43.8348   31.4760 H   0  0  0  0  0  0  0  0  0  0  0  0
   10.7306   44.8935   31.1679 H   0  0  0  0  0  0  0  0  0  0  0  0
    7.0102   44.7129   31.5788 H   0  0  0  0  0  0  0  0  0  0  0  0
   10.3478   47.1878   30.4097 H   0  0  0  0  0  0  0  0  0  0  0  0
    5.4621   46.3022   30.4938 H   0  0  0  0  0  0  0  0  0  0  0  0
    8.7918   48.7677   29.3329 H   0  0  0  0  0  0  0  0  0  0  0  0
    4.7593   50.0467   29.1990 H   0  0  0  0  0  0  0  0  0  0  0  0
    7.3846   50.4217   30.6920 H   0  0  0  0  0  0  0  0  0  0  0  0
    5.9614   51.5403   30.8533 H   0  0  0  0  0  0  0  0  0  0  0  0
    6.7416   51.2607   29.2567 H   0  0  0  0  0  0  0  0  0  0  0  0
    2.8801   48.8656   29.9115 H   0  0  0  0  0  0  0  0  0  0  0  0
    4.8241   48.1923   34.4541 H   0  0  0  0  0  0  0  0  0  0  0  0
    0.1368   47.9009   33.6713 H   0  0  0  0  0  0  0  0  0  0  0  0
    0.6807   46.2260   33.1816 H   0  0  0  0  0  0  0  0  0  0  0  0
   11.3779   41.5548   31.4750 H   0  0  0  0  0  0  0  0  0  0  0  0
    9.8235   40.7202   31.7651 H   0  0  0  0  0  0  0  0  0  0  0  0
   11.7311   39.5363   30.3532 H   0  0  0  0  0  0  0  0  0  0  0  0
   10.1202   38.2695   32.6409 H   0  0  0  0  0  0  0  0  0  0  0  0
   13.6850   37.4638   31.2321 H   0  0  0  0  0  0  0  0  0  0  0  0
   10.0251   38.1793   29.7654 H   0  0  0  0  0  0  0  0  0  0  0  0
   11.2757   36.3135   32.4907 H   0  0  0  0  0  0  0  0  0  0  0  0
   11.9839   36.9110   29.7708 H   0  0  0  0  0  0  0  0  0  0  0  0
   12.3307   38.3536   34.7457 H   0  0  0  0  0  0  0  0  0  0  0  0
   16.7566   34.1786   32.4623 H   0  0  0  0  0  0  0  0  0  0  0  0
   16.6353   34.5301   37.1419 H   0  0  0  0  0  0  0  0  0  0  0  0
   15.3535   35.7355   37.5144 H   0  0  0  0  0  0  0  0  0  0  0  0
  1  2  2  0
  1  3  1  0
  3  4  1  0
  4  5  1  0
  6  1  1  0
  7  6  1  0
  6  8  1  0
  8  9  1  0
  9 10  2  0
 11  9  1  0
 10 12  1  0
 13 11  2  0
 12 14  2  0
 14 13  1  0
 14 15  1  0
 15 16  1  0
 16 17  1  0
 16 18  1  0
 18 19  2  0
 20 18  1  0
 19 21  1  0
 22 20  2  0
 20 23  1  0
 21 24  1  0
 21 25  2  0
 25 22  1  0
 23 26  1  0
 23 27  2  0
 24 28  1  0
 25 29  1  0
 28 29  1  0
  4 30  2  0
  4 31  1  0
 32 31  1  0
 32 33  1  0
 33 34  1  0
 33 35  1  0
 34 36  1  0
 35 37  1  0
 35 38  1  0
 38 36  1  0
 36 39  1  0
 38 40  1  0
 41 39  1  0
 42 39  1  0
 43 41  2  0
 41 44  1  0
 45 42  2  0
 46 43  1  0
 44 47  2  0
 44 45  1  0
 48 46  2  0
 48 47  1  0
 47 49  1  0
  6 50  1  1
  7 51  1  0
  7 52  1  0
  8 53  1  0
  8 54  1  0
 10 55  1  0
 11 56  1  0
 12 57  1  0
 13 58  1  0
 16 59  1  6
 17 60  1  0
 17 61  1  0
 17 62  1  0
 19 63  1  0
 22 64  1  0
 28 65  1  0
 28 66  1  0
 32 67  1  0
 32 68  1  0
 33 69  1  0
 35 70  1  0
 36 71  1  0
 37 72  1  0
 38 73  1  0
 40 74  1  0
 42 75  1  0
 46 76  1  0
 49 77  1  0
 49 78  1  0
M  CHG  3   5  -1  23   1  26  -1
M  END
>  <EmbedRMS>  (214) 
0.081856999273

$$$$

     RDKit          3D

 78 83  0  0  0  0  0  0  0  0999 V2000
   10.2801   43.7666   33.8249 C   0  0  0  0  0  0  0  0  0  0  0  0
   11.4109   43.5921   34.3665 O   0  0  0  0  0  0  0  0  0  0  0  0
    9.3617   42.7251   33.7345 O   0  0  0  0  0  0  0  0  0  0  0  0
    9.8898   41.2268   34.2939 P   0  0  0  0  0  0  0  0  0  0  0  0
   10.3735   41.4567   35.8832 O   0  0  0  0  0  0  0  0  0  0  0  0
    9.9454   45.0739   33.2113 C   0  0  1  0  0  0  0  0  0  0  0  0
   11.0261   46.0296   33.4709 N   0  0  0  0  0  0  0  0  0  0  0  0
    9.7534   44.8546   31.6950 C   0  0  0  0  0  0  0  0  0  0  0  0
    8.7952   45.8418   31.0849 C   0  0  0  0  0  0  0  0  0  0  0  0
    7.4075   45.5992   31.0998 C   0  0  0  0  0  0  0  0  0  0  0  0
    9.2832   46.9883   30.4370 C   0  0  0  0  0  0  0  0  0  0  0  0
    6.5268   46.4984   30.4827 C   0  0  0  0  0  0  0  0  0  0  0  0
    8.4006   47.8877   29.8271 C   0  0  0  0  0  0  0  0  0  0  0  0
    7.0199   47.6526   29.8576 C   0  0  0  0  0  0  0  0  0  0  0  0
    6.1375   48.5543   29.2556 O   0  0  0  0  0  0  0  0  0  0  0  0
    5.5364   49.6533   29.9486 C   0  0  2  0  0  0  0  0  0  0  0  0
    6.5691   50.7478   30.2538 C   0  0  0  0  0  0  0  0  0  0  0  0
    4.7669   49.1805   31.1783 C   0  0  0  0  0  0  0  0  0  0  0  0
    5.4520   48.9730   32.4043 C   0  0  0  0  0  0  0  0  0  0  0  0
    3.3551   48.9284   31.1209 C   0  0  0  0  0  0  0  0  0  0  0  0
    4.7207   48.5846   33.5183 C   0  0  0  0  0  0  0  0  0  0  0  0
    2.6607   48.5551   32.2948 C   0  0  0  0  0  0  0  0  0  0  0  0
    2.6279   49.0036   29.8842 N   0  0  0  0  0  0  0  0  0  0  0  0
    5.1754   48.3351   34.7989 O   0  0  0  0  0  0  0  0  0  0  0  0
    3.3835   48.3921   33.4681 C   0  0  0  0  0  0  0  0  0  0  0  0
    3.1242   48.3950   28.7545 O   0  0  0  0  0  0  0  0  0  0  0  0
    1.4509   49.4198   29.8761 O   0  0  0  0  0  0  0  0  0  0  0  0
    4.0483   47.9633   35.6037 C   0  0  0  0  0  0  0  0  0  0  0  0
    2.9242   48.0124   34.7146 O   0  0  0  0  0  0  0  0  0  0  0  0
    8.8123   40.1845   34.2134 O   0  0  0  0  0  0  0  0  0  0  0  0
   11.2402   40.7944   33.3688 O   0  0  0  0  0  0  0  0  0  0  0  0
   10.9142   40.6898   31.9970 C   0  0  0  0  0  0  0  0  0  0  0  0
   11.5260   39.3884   31.4376 C   0  0  0  0  0  0  0  0  0  0  0  0
   12.7504   39.0888   32.0816 O   0  0  0  0  0  0  0  0  0  0  0  0
   10.6114   38.1909   31.6460 C   0  0  0  0  0  0  0  0  0  0  0  0
   12.9357   37.6813   32.0303 C   0  0  0  0  0  0  0  0  0  0  0  0
    9.6145   38.0858   30.6534 O   0  0  0  0  0  0  0  0  0  0  0  0
   11.5769   37.0148   31.7012 C   0  0  0  0  0  0  0  0  0  0  0  0
   13.4849   37.2112   33.3247 N   0  0  0  0  0  0  0  0  0  0  0  0
   11.6193   36.3261   30.4724 O   0  0  0  0  0  0  0  0  0  0  0  0
   14.4802   36.3313   33.5730 C   0  0  0  0  0  0  0  0  0  0  0  0
   13.1141   37.6268   34.5698 C   0  0  0  0  0  0  0  0  0  0  0  0
   15.2074   35.6151   32.6741 N   0  0  0  0  0  0  0  0  0  0  0  0
   14.6761   36.2300   34.9184 C   0  0  0  0  0  0  0  0  0  0  0  0
   13.8220   37.0445   35.5789 N   0  0  0  0  0  0  0  0  0  0  0  0
   16.1642   34.7600   33.1547 C   0  0  0  0  0  0  0  0  0  0  0  0
   15.6529   35.3503   35.4131 C   0  0  0  0  0  0  0  0  0  0  0  0
   16.3797   34.6314   34.5042 N   0  0  0  0  0  0  0  0  0  0  0  0
   15.9004   35.1930   36.8090 N   0  0  0  0  0  0  0  0  0  0  0  0
    8.9989   45.4385   33.6723 H   0  0  0  0  0  0  0  0  0  0  0  0
   10.7756   46.9372   33.0159 H   0  0  0  0  0  0  0  0  0  0  0  0
   11.0495   46.2282   34.4983 H   0  0  0  0  0  0  0  0  0  0  0  0
   10.7405   44.9082   31.1837 H   0  0  0  0  0  0  0  0  0  0  0  0
    9.3637   43.8360   31.4712 H   0  0  0  0  0  0  0  0  0  0  0  0
    7.0121   44.7144   31.5833 H   0  0  0  0  0  0  0  0  0  0  0  0
   10.3473   47.1863   30.4004 H   0  0  0  0  0  0  0  0  0  0  0  0
    5.4619   46.3039   30.4994 H   0  0  0  0  0  0  0  0  0  0  0  0
    8.7896   48.7675   29.3308 H   0  0  0  0  0  0  0  0  0  0  0  0
    4.8252   50.1339   29.2457 H   0  0  0  0  0  0  0  0  0  0  0  0
    7.4181   50.3600   30.8515 H   0  0  0  0  0  0  0  0  0  0  0  0
    6.9789   51.1471   29.3018 H   0  0  0  0  0  0  0  0  0  0  0  0
    6.0883   51.5831   30.8064 H   0  0  0  0  0  0  0  0  0  0  0  0
    6.5209   49.1027   32.4956 H   0  0  0  0  0  0  0  0  0  0  0  0
    1.5957   48.3622   32.2828 H   0  0  0  0  0  0  0  0  0  0  0  0
    3.9128   48.6884   36.4333 H   0  0  0  0  0  0  0  0  0  0  0  0
    4.1806   46.9337   35.9975 H   0  0  0  0  0  0  0  0  0  0  0  0
    9.8232   40.7190   31.7644 H   0  0  0  0  0  0  0  0  0  0  0  0
   11.3777   41.5526   31.4723 H   0  0  0  0  0  0  0  0  0  0  0  0
   11.7283   39.5311   30.3515 H   0  0  0  0  0  0  0  0  0  0  0  0
   10.1127   38.2734   32.6376 H   0  0  0  0  0  0  0  0  0  0  0  0
   13.6693   37.4567   31.2242 H   0  0  0  0  0  0  0  0  0  0  0  0
   10.0533   38.1118   29.7636 H   0  0  0  0  0  0  0  0  0  0  0  0
   11.2607   36.3148   32.5102 H   0  0  0  0  0  0  0  0  0  0  0  0
   12.1496   35.5023   30.6324 H   0  0  0  0  0  0  0  0  0  0  0  0
   12.3301   38.3524   34.7455 H   0  0  0  0  0  0  0  0  0  0  0  0
   16.7562   34.1781   32.4619 H   0  0  0  0  0  0  0  0  0  0  0  0
   15.3535   35.7357   37.5139 H   0  0  0  0  0  0  0  0  0  0  0  0
   16.6351   34.5298   37.1416 H   0  0  0  0  0  0  0  0  0  0  0  0
  1  2  2  0
  1  3  1  0
  3  4  1  0
  4  5  1  0
  6  1  1  0
  7  6  1  0
  6  8  1  0
  8  9  1  0
  9 10  2  0
 11  9  1  0
 10 12  1  0
 13 11  2  0
 12 14  2  0
 14 13  1  0
 14 15  1  0
 15 16  1  0
 16 17  1  0
 16 18  1  0
 18 19  2  0
 20 18  1  0
 19 21  1  0
 22 20  2  0
 20 23  1  0
 21 24  1  0
 21 25  2  0
 25 22  1  0
 23 26  1  0
 23 27  2  0
 24 28  1  0
 25 29  1  0
 28 29  1  0
  4 30  2  0
  4 31  1  0
 32 31  1  0
 32 33  1  0
 33 34  1  0
 33 35  1  0
 34 36  1  0
 35 37  1  0
 35 38  1  0
 38 36  1  0
 36 39  1  0
 38 40  1  0
 41 39  1  0
 42 39  1  0
 43 41  2  0
 41 44  1  0
 45 42  2  0
 46 43  1  0
 44 47  2  0
 44 45  1  0
 48 46  2  0
 48 47  1  0
 47 49  1  0
  6 50  1  1
  7 51  1  0
  7 52  1  0
  8 53  1  0
  8 54  1  0
 10 55  1  0
 11 56  1  0
 12 57  1  0
 13 58  1  0
 16 59  1  6
 17 60  1  0
 17 61  1  0
 17 62  1  0
 19 63  1  0
 22 64  1  0
 28 65  1  0
 28 66  1  0
 32 67  1  0
 32 68  1  0
 33 69  1  0
 35 70  1  0
 36 71  1  0
 37 72  1  0
 38 73  1  0
 40 74  1  0
 42 75  1  0
 46 76  1  0
 49 77  1  0
 49 78  1  0
M  CHG  3   5  -1  23   1  26  -1
M  END
>  <EmbedRMS>  (215) 
0.0815566131854

$$$$

     RDKit          3D

 78 83  0  0  0  0  0  0  0  0999 V2000
   10.2833   43.7662   33.8252 C   0  0  0  0  0  0  0  0  0  0  0  0
   11.4100   43.5932   34.3750 O   0  0  0  0  0  0  0  0  0  0  0  0
    9.3637   42.7255   33.7346 O   0  0  0  0  0  0  0  0  0  0  0  0
    9.8906   41.2266   34.2933 P   0  0  0  0  0  0  0  0  0  0  0  0
   10.3743   41.4558   35.8827 O   0  0  0  0  0  0  0  0  0  0  0  0
    9.9545   45.0695   33.2030 C   0  0  1  0  0  0  0  0  0  0  0  0
   11.0272   46.0322   33.4752 N   0  0  0  0  0  0  0  0  0  0  0  0
    9.7464   44.8482   31.6869 C   0  0  0  0  0  0  0  0  0  0  0  0
    8.7921   45.8408   31.0834 C   0  0  0  0  0  0  0  0  0  0  0  0
    7.4039   45.6020   31.1004 C   0  0  0  0  0  0  0  0  0  0  0  0
    9.2825   46.9899   30.4429 C   0  0  0  0  0  0  0  0  0  0  0  0
    6.5242   46.5048   30.4870 C   0  0  0  0  0  0  0  0  0  0  0  0
    8.4015   47.8919   29.8349 C   0  0  0  0  0  0  0  0  0  0  0  0
    7.0207   47.6461   29.8432 C   0  0  0  0  0  0  0  0  0  0  0  0
    6.1369   48.5453   29.2408 O   0  0  0  0  0  0  0  0  0  0  0  0
    5.8625   48.5756   27.8365 C   0  0  2  0  0  0  0  0  0  0  0  0
    4.9853   47.3896   27.4148 C   0  0  0  0  0  0  0  0  0  0  0  0
    7.1316   48.7978   27.0149 C   0  0  0  0  0  0  0  0  0  0  0  0
    7.5767   50.1377   26.8897 C   0  0  0  0  0  0  0  0  0  0  0  0
    7.8969   47.7558   26.3831 C   0  0  0  0  0  0  0  0  0  0  0  0
    8.7141   50.3996   26.1376 C   0  0  0  0  0  0  0  0  0  0  0  0
    9.0369   48.0839   25.6185 C   0  0  0  0  0  0  0  0  0  0  0  0
    7.5542   46.3740   26.5049 N   0  0  0  0  0  0  0  0  0  0  0  0
    9.3135   51.6181   25.8825 O   0  0  0  0  0  0  0  0  0  0  0  0
    9.4110   49.4164   25.5254 C   0  0  0  0  0  0  0  0  0  0  0  0
    7.2797   45.6497   25.3686 O   0  0  0  0  0  0  0  0  0  0  0  0
    7.8280   45.7638   27.5577 O   0  0  0  0  0  0  0  0  0  0  0  0
   10.4612   51.3817   25.0557 C   0  0  0  0  0  0  0  0  0  0  0  0
   10.4864   49.9625   24.8515 O   0  0  0  0  0  0  0  0  0  0  0  0
    8.8123   40.1851   34.2127 O   0  0  0  0  0  0  0  0  0  0  0  0
   11.2406   40.7945   33.3670 O   0  0  0  0  0  0  0  0  0  0  0  0
   10.9134   40.6866   31.9954 C   0  0  0  0  0  0  0  0  0  0  0  0
   11.5166   39.3787   31.4404 C   0  0  0  0  0  0  0  0  0  0  0  0
   12.7486   39.0849   32.0734 O   0  0  0  0  0  0  0  0  0  0  0  0
   10.6039   38.1884   31.6669 C   0  0  0  0  0  0  0  0  0  0  0  0
   12.9329   37.6776   32.0284 C   0  0  0  0  0  0  0  0  0  0  0  0
    9.6373   38.0938   30.6485 O   0  0  0  0  0  0  0  0  0  0  0  0
   11.5737   37.0141   31.7055 C   0  0  0  0  0  0  0  0  0  0  0  0
   13.4853   37.2120   33.3238 N   0  0  0  0  0  0  0  0  0  0  0  0
   11.6210   36.3379   30.4683 O   0  0  0  0  0  0  0  0  0  0  0  0
   14.4804   36.3319   33.5726 C   0  0  0  0  0  0  0  0  0  0  0  0
   13.1141   37.6275   34.5689 C   0  0  0  0  0  0  0  0  0  0  0  0
   15.2075   35.6152   32.6740 N   0  0  0  0  0  0  0  0  0  0  0  0
   14.6761   36.2306   34.9181 C   0  0  0  0  0  0  0  0  0  0  0  0
   13.8218   37.0451   35.5783 N   0  0  0  0  0  0  0  0  0  0  0  0
   16.1641   34.7600   33.1548 C   0  0  0  0  0  0  0  0  0  0  0  0
   15.6527   35.3506   35.4131 C   0  0  0  0  0  0  0  0  0  0  0  0
   16.3795   34.6315   34.5043 N   0  0  0  0  0  0  0  0  0  0  0  0
   15.9001   35.1933   36.8090 N   0  0  0  0  0  0  0  0  0  0  0  0
    9.0119   45.4318   33.6707 H   0  0  0  0  0  0  0  0  0  0  0  0
   10.7257   46.9688   33.1210 H   0  0  0  0  0  0  0  0  0  0  0  0
   11.8904   45.7660   32.9464 H   0  0  0  0  0  0  0  0  0  0  0  0
   10.7227   44.8819   31.1547 H   0  0  0  0  0  0  0  0  0  0  0  0
    9.3414   43.8331   31.4754 H   0  0  0  0  0  0  0  0  0  0  0  0
    7.0068   44.7182   31.5842 H   0  0  0  0  0  0  0  0  0  0  0  0
   10.3465   47.1896   30.4143 H   0  0  0  0  0  0  0  0  0  0  0  0
    5.4589   46.3141   30.5061 H   0  0  0  0  0  0  0  0  0  0  0  0
    8.7934   48.7799   29.3564 H   0  0  0  0  0  0  0  0  0  0  0  0
    5.2146   49.4641   27.6657 H   0  0  0  0  0  0  0  0  0  0  0  0
    4.8982   47.3438   26.3084 H   0  0  0  0  0  0  0  0  0  0  0  0
    3.9655   47.5175   27.8365 H   0  0  0  0  0  0  0  0  0  0  0  0
    5.3754   46.4294   27.8037 H   0  0  0  0  0  0  0  0  0  0  0  0
    7.0479   50.9555   27.3634 H   0  0  0  0  0  0  0  0  0  0  0  0
    9.6232   47.3164   25.1294 H   0  0  0  0  0  0  0  0  0  0  0  0
   10.3492   51.9067   24.0840 H   0  0  0  0  0  0  0  0  0  0  0  0
   11.3845   51.7102   25.5774 H   0  0  0  0  0  0  0  0  0  0  0  0
   11.3827   41.5438   31.4668 H   0  0  0  0  0  0  0  0  0  0  0  0
    9.8225   40.7224   31.7631 H   0  0  0  0  0  0  0  0  0  0  0  0
   11.6978   39.5037   30.3478 H   0  0  0  0  0  0  0  0  0  0  0  0
   10.1084   38.2787   32.6627 H   0  0  0  0  0  0  0  0  0  0  0  0
   13.6638   37.4472   31.2214 H   0  0  0  0  0  0  0  0  0  0  0  0
    8.9763   37.4191   30.9532 H   0  0  0  0  0  0  0  0  0  0  0  0
   11.2821   36.3054   32.5172 H   0  0  0  0  0  0  0  0  0  0  0  0
   10.8658   35.6936   30.4652 H   0  0  0  0  0  0  0  0  0  0  0  0
   12.3294   38.3523   34.7445 H   0  0  0  0  0  0  0  0  0  0  0  0
   16.7561   34.1778   32.4621 H   0  0  0  0  0  0  0  0  0  0  0  0
   16.6345   34.5300   37.1416 H   0  0  0  0  0  0  0  0  0  0  0  0
   15.3533   35.7361   37.5138 H   0  0  0  0  0  0  0  0  0  0  0  0
  1  2  2  0
  1  3  1  0
  3  4  1  0
  4  5  1  0
  6  1  1  0
  7  6  1  0
  6  8  1  0
  8  9  1  0
  9 10  2  0
 11  9  1  0
 10 12  1  0
 13 11  2  0
 12 14  2  0
 14 13  1  0
 14 15  1  0
 15 16  1  0
 16 17  1  0
 16 18  1  0
 18 19  2  0
 20 18  1  0
 19 21  1  0
 22 20  2  0
 20 23  1  0
 21 24  1  0
 21 25  2  0
 25 22  1  0
 23 26  1  0
 23 27  2  0
 24 28  1  0
 25 29  1  0
 28 29  1  0
  4 30  2  0
  4 31  1  0
 32 31  1  0
 32 33  1  0
 33 34  1  0
 33 35  1  0
 34 36  1  0
 35 37  1  0
 35 38  1  0
 38 36  1  0
 36 39  1  0
 38 40  1  0
 41 39  1  0
 42 39  1  0
 43 41  2  0
 41 44  1  0
 45 42  2  0
 46 43  1  0
 44 47  2  0
 44 45  1  0
 48 46  2  0
 48 47  1  0
 47 49  1  0
  6 50  1  1
  7 51  1  0
  7 52  1  0
  8 53  1  0
  8 54  1  0
 10 55  1  0
 11 56  1  0
 12 57  1  0
 13 58  1  0
 16 59  1  1
 17 60  1  0
 17 61  1  0
 17 62  1  0
 19 63  1  0
 22 64  1  0
 28 65  1  0
 28 66  1  0
 32 67  1  0
 32 68  1  0
 33 69  1  0
 35 70  1  0
 36 71  1  0
 37 72  1  0
 38 73  1  0
 40 74  1  0
 42 75  1  0
 46 76  1  0
 49 77  1  0
 49 78  1  0
M  CHG  3   5  -1  23   1  26  -1
M  END
>  <EmbedRMS>  (216) 
0.0826780357146

$$$$

     RDKit          3D

 78 83  0  0  0  0  0  0  0  0999 V2000
   10.2805   43.7664   33.8251 C   0  0  0  0  0  0  0  0  0  0  0  0
   11.4111   43.5918   34.3667 O   0  0  0  0  0  0  0  0  0  0  0  0
    9.3619   42.7249   33.7346 O   0  0  0  0  0  0  0  0  0  0  0  0
    9.8900   41.2266   34.2940 P   0  0  0  0  0  0  0  0  0  0  0  0
   10.3734   41.4566   35.8833 O   0  0  0  0  0  0  0  0  0  0  0  0
    9.9459   45.0736   33.2113 C   0  0  1  0  0  0  0  0  0  0  0  0
   11.0267   46.0291   33.4707 N   0  0  0  0  0  0  0  0  0  0  0  0
    9.7535   44.8539   31.6952 C   0  0  0  0  0  0  0  0  0  0  0  0
    8.7955   45.8412   31.0852 C   0  0  0  0  0  0  0  0  0  0  0  0
    7.4090   45.6004   31.1006 C   0  0  0  0  0  0  0  0  0  0  0  0
    9.2827   46.9874   30.4397 C   0  0  0  0  0  0  0  0  0  0  0  0
    6.5287   46.5005   30.4846 C   0  0  0  0  0  0  0  0  0  0  0  0
    8.4026   47.8888   29.8294 C   0  0  0  0  0  0  0  0  0  0  0  0
    7.0127   47.6525   29.8490 C   0  0  0  0  0  0  0  0  0  0  0  0
    6.0801   48.5157   29.2497 O   0  0  0  0  0  0  0  0  0  0  0  0
    6.3654   49.7888   28.6642 C   0  0  2  0  0  0  0  0  0  0  0  0
    6.6450   50.8297   29.7567 C   0  0  0  0  0  0  0  0  0  0  0  0
    5.1768   50.2138   27.8206 C   0  0  0  0  0  0  0  0  0  0  0  0
    3.9107   50.3355   28.4462 C   0  0  0  0  0  0  0  0  0  0  0  0
    5.3002   50.5333   26.4276 C   0  0  0  0  0  0  0  0  0  0  0  0
    2.8400   50.8026   27.6951 C   0  0  0  0  0  0  0  0  0  0  0  0
    4.1789   51.0203   25.7182 C   0  0  0  0  0  0  0  0  0  0  0  0
    6.5321   50.3420   25.7182 N   0  0  0  0  0  0  0  0  0  0  0  0
    1.5342   51.0087   28.0966 O   0  0  0  0  0  0  0  0  0  0  0  0
    2.9698   51.1365   26.3907 C   0  0  0  0  0  0  0  0  0  0  0  0
    7.1248   49.1004   25.7041 O   0  0  0  0  0  0  0  0  0  0  0  0
    6.9206   51.2051   24.9044 O   0  0  0  0  0  0  0  0  0  0  0  0
    0.7979   51.5039   26.9698 C   0  0  0  0  0  0  0  0  0  0  0  0
    1.7526   51.5700   25.9015 O   0  0  0  0  0  0  0  0  0  0  0  0
    8.8123   40.1844   34.2133 O   0  0  0  0  0  0  0  0  0  0  0  0
   11.2405   40.7942   33.3692 O   0  0  0  0  0  0  0  0  0  0  0  0
   10.9150   40.6905   31.9972 C   0  0  0  0  0  0  0  0  0  0  0  0
   11.5252   39.3886   31.4375 C   0  0  0  0  0  0  0  0  0  0  0  0
   12.7499   39.0874   32.0799 O   0  0  0  0  0  0  0  0  0  0  0  0
   10.6092   38.1926   31.6469 C   0  0  0  0  0  0  0  0  0  0  0  0
   12.9332   37.6793   32.0294 C   0  0  0  0  0  0  0  0  0  0  0  0
    9.6122   38.0894   30.6542 O   0  0  0  0  0  0  0  0  0  0  0  0
   11.5743   37.0145   31.7024 C   0  0  0  0  0  0  0  0  0  0  0  0
   13.4844   37.2108   33.3241 N   0  0  0  0  0  0  0  0  0  0  0  0
   11.6298   36.3239   30.4740 O   0  0  0  0  0  0  0  0  0  0  0  0
   14.4802   36.3313   33.5727 C   0  0  0  0  0  0  0  0  0  0  0  0
   13.1138   37.6267   34.5693 C   0  0  0  0  0  0  0  0  0  0  0  0
   15.2075   35.6149   32.6739 N   0  0  0  0  0  0  0  0  0  0  0  0
   14.6761   36.2303   34.9182 C   0  0  0  0  0  0  0  0  0  0  0  0
   13.8220   37.0447   35.5785 N   0  0  0  0  0  0  0  0  0  0  0  0
   16.1643   34.7600   33.1547 C   0  0  0  0  0  0  0  0  0  0  0  0
   15.6529   35.3505   35.4130 C   0  0  0  0  0  0  0  0  0  0  0  0
   16.3798   34.6315   34.5042 N   0  0  0  0  0  0  0  0  0  0  0  0
   15.9003   35.1932   36.8090 N   0  0  0  0  0  0  0  0  0  0  0  0
    8.9996   45.4381   33.6725 H   0  0  0  0  0  0  0  0  0  0  0  0
   10.7765   46.9368   33.0157 H   0  0  0  0  0  0  0  0  0  0  0  0
   11.0506   46.2277   34.4980 H   0  0  0  0  0  0  0  0  0  0  0  0
    9.3635   43.8353   31.4717 H   0  0  0  0  0  0  0  0  0  0  0  0
   10.7406   44.9069   31.1836 H   0  0  0  0  0  0  0  0  0  0  0  0
    7.0133   44.7158   31.5843 H   0  0  0  0  0  0  0  0  0  0  0  0
   10.3472   47.1846   30.4049 H   0  0  0  0  0  0  0  0  0  0  0  0
    5.4645   46.3023   30.5035 H   0  0  0  0  0  0  0  0  0  0  0  0
    8.8207   48.7564   29.3408 H   0  0  0  0  0  0  0  0  0  0  0  0
    7.2730   49.7146   28.0377 H   0  0  0  0  0  0  0  0  0  0  0  0
    7.5706   50.5729   30.3109 H   0  0  0  0  0  0  0  0  0  0  0  0
    5.8093   50.8749   30.4861 H   0  0  0  0  0  0  0  0  0  0  0  0
    6.7833   51.8335   29.3008 H   0  0  0  0  0  0  0  0  0  0  0  0
    3.7676   50.0854   29.4896 H   0  0  0  0  0  0  0  0  0  0  0  0
    4.2440   51.2733   24.6677 H   0  0  0  0  0  0  0  0  0  0  0  0
   -0.0218   50.8024   26.7083 H   0  0  0  0  0  0  0  0  0  0  0  0
    0.3965   52.5157   27.1880 H   0  0  0  0  0  0  0  0  0  0  0  0
    9.8241   40.7215   31.7641 H   0  0  0  0  0  0  0  0  0  0  0  0
   11.3800   41.5528   31.4730 H   0  0  0  0  0  0  0  0  0  0  0  0
   11.7266   39.5310   30.3513 H   0  0  0  0  0  0  0  0  0  0  0  0
   10.1110   38.2747   32.6387 H   0  0  0  0  0  0  0  0  0  0  0  0
   13.6652   37.4520   31.2226 H   0  0  0  0  0  0  0  0  0  0  0  0
   10.0511   38.1143   29.7645 H   0  0  0  0  0  0  0  0  0  0  0  0
   11.2762   36.3141   32.5189 H   0  0  0  0  0  0  0  0  0  0  0  0
   10.8593   35.6978   30.4640 H   0  0  0  0  0  0  0  0  0  0  0  0
   12.3294   38.3518   34.7450 H   0  0  0  0  0  0  0  0  0  0  0  0
   16.7564   34.1780   32.4620 H   0  0  0  0  0  0  0  0  0  0  0  0
   15.3534   35.7359   37.5138 H   0  0  0  0  0  0  0  0  0  0  0  0
   16.6349   34.5300   37.1415 H   0  0  0  0  0  0  0  0  0  0  0  0
  1  2  2  0
  1  3  1  0
  3  4  1  0
  4  5  1  0
  6  1  1  0
  7  6  1  0
  6  8  1  0
  8  9  1  0
  9 10  2  0
 11  9  1  0
 10 12  1  0
 13 11  2  0
 12 14  2  0
 14 13  1  0
 14 15  1  0
 15 16  1  0
 16 17  1  0
 16 18  1  0
 18 19  2  0
 20 18  1  0
 19 21  1  0
 22 20  2  0
 20 23  1  0
 21 24  1  0
 21 25  2  0
 25 22  1  0
 23 26  1  0
 23 27  2  0
 24 28  1  0
 25 29  1  0
 28 29  1  0
  4 30  2  0
  4 31  1  0
 32 31  1  0
 32 33  1  0
 33 34  1  0
 33 35  1  0
 34 36  1  0
 35 37  1  0
 35 38  1  0
 38 36  1  0
 36 39  1  0
 38 40  1  0
 41 39  1  0
 42 39  1  0
 43 41  2  0
 41 44  1  0
 45 42  2  0
 46 43  1  0
 44 47  2  0
 44 45  1  0
 48 46  2  0
 48 47  1  0
 47 49  1  0
  6 50  1  1
  7 51  1  0
  7 52  1  0
  8 53  1  0
  8 54  1  0
 10 55  1  0
 11 56  1  0
 12 57  1  0
 13 58  1  0
 16 59  1  6
 17 60  1  0
 17 61  1  0
 17 62  1  0
 19 63  1  0
 22 64  1  0
 28 65  1  0
 28 66  1  0
 32 67  1  0
 32 68  1  0
 33 69  1  0
 35 70  1  0
 36 71  1  0
 37 72  1  0
 38 73  1  0
 40 74  1  0
 42 75  1  0
 46 76  1  0
 49 77  1  0
 49 78  1  0
M  CHG  3   5  -1  23   1  26  -1
M  END
>  <EmbedRMS>  (217) 
0.0816267239803

$$$$

     RDKit          3D

 78 83  0  0  0  0  0  0  0  0999 V2000
   10.2834   43.7662   33.8258 C   0  0  0  0  0  0  0  0  0  0  0  0
   11.4102   43.5930   34.3753 O   0  0  0  0  0  0  0  0  0  0  0  0
    9.3635   42.7257   33.7353 O   0  0  0  0  0  0  0  0  0  0  0  0
    9.8899   41.2269   34.2948 P   0  0  0  0  0  0  0  0  0  0  0  0
   10.3732   41.4562   35.8841 O   0  0  0  0  0  0  0  0  0  0  0  0
    9.9546   45.0695   33.2037 C   0  0  1  0  0  0  0  0  0  0  0  0
   11.0274   46.0321   33.4757 N   0  0  0  0  0  0  0  0  0  0  0  0
    9.7465   44.8480   31.6879 C   0  0  0  0  0  0  0  0  0  0  0  0
    8.7922   45.8408   31.0848 C   0  0  0  0  0  0  0  0  0  0  0  0
    7.4057   45.6014   31.0988 C   0  0  0  0  0  0  0  0  0  0  0  0
    9.2821   46.9873   30.4423 C   0  0  0  0  0  0  0  0  0  0  0  0
    6.5272   46.5028   30.4831 C   0  0  0  0  0  0  0  0  0  0  0  0
    8.4035   47.8896   29.8308 C   0  0  0  0  0  0  0  0  0  0  0  0
    7.0133   47.6544   29.8484 C   0  0  0  0  0  0  0  0  0  0  0  0
    6.0829   48.5193   29.2481 O   0  0  0  0  0  0  0  0  0  0  0  0
    6.3737   49.7897   28.6564 C   0  0  2  0  0  0  0  0  0  0  0  0
    6.6505   50.8295   29.7480 C   0  0  0  0  0  0  0  0  0  0  0  0
    5.1881   50.2313   27.8190 C   0  0  0  0  0  0  0  0  0  0  0  0
    3.8850   50.0679   28.3519 C   0  0  0  0  0  0  0  0  0  0  0  0
    5.3414   50.7727   26.4980 C   0  0  0  0  0  0  0  0  0  0  0  0
    2.7959   50.4013   27.5578 C   0  0  0  0  0  0  0  0  0  0  0  0
    4.1940   51.0765   25.7306 C   0  0  0  0  0  0  0  0  0  0  0  0
    6.6344   51.0410   25.9330 N   0  0  0  0  0  0  0  0  0  0  0  0
    1.4513   50.3141   27.8635 O   0  0  0  0  0  0  0  0  0  0  0  0
    2.9437   50.8786   26.3008 C   0  0  0  0  0  0  0  0  0  0  0  0
    6.8401   50.8638   24.5843 O   0  0  0  0  0  0  0  0  0  0  0  0
    7.4944   51.6558   26.5966 O   0  0  0  0  0  0  0  0  0  0  0  0
    0.7083   50.7672   26.7235 C   0  0  0  0  0  0  0  0  0  0  0  0
    1.7000   51.1182   25.7487 O   0  0  0  0  0  0  0  0  0  0  0  0
    8.8120   40.1850   34.2133 O   0  0  0  0  0  0  0  0  0  0  0  0
   11.2403   40.7947   33.3700 O   0  0  0  0  0  0  0  0  0  0  0  0
   10.9144   40.6914   31.9982 C   0  0  0  0  0  0  0  0  0  0  0  0
   11.5270   39.3912   31.4385 C   0  0  0  0  0  0  0  0  0  0  0  0
   12.7520   39.0911   32.0836 O   0  0  0  0  0  0  0  0  0  0  0  0
   10.6113   38.1932   31.6451 C   0  0  0  0  0  0  0  0  0  0  0  0
   12.9413   37.6838   32.0297 C   0  0  0  0  0  0  0  0  0  0  0  0
    9.6064   38.0878   30.6599 O   0  0  0  0  0  0  0  0  0  0  0  0
   11.5822   37.0198   31.6877 C   0  0  0  0  0  0  0  0  0  0  0  0
   13.4840   37.2104   33.3254 N   0  0  0  0  0  0  0  0  0  0  0  0
   11.6179   36.3072   30.4691 O   0  0  0  0  0  0  0  0  0  0  0  0
   14.4797   36.3309   33.5738 C   0  0  0  0  0  0  0  0  0  0  0  0
   13.1137   37.6269   34.5702 C   0  0  0  0  0  0  0  0  0  0  0  0
   15.2074   35.6152   32.6747 N   0  0  0  0  0  0  0  0  0  0  0  0
   14.6756   36.2298   34.9190 C   0  0  0  0  0  0  0  0  0  0  0  0
   13.8217   37.0445   35.5793 N   0  0  0  0  0  0  0  0  0  0  0  0
   16.1643   34.7603   33.1551 C   0  0  0  0  0  0  0  0  0  0  0  0
   15.6529   35.3503   35.4136 C   0  0  0  0  0  0  0  0  0  0  0  0
   16.3798   34.6316   34.5046 N   0  0  0  0  0  0  0  0  0  0  0  0
   15.9005   35.1930   36.8094 N   0  0  0  0  0  0  0  0  0  0  0  0
    9.0121   45.4319   33.6716 H   0  0  0  0  0  0  0  0  0  0  0  0
   10.7261   46.9687   33.1213 H   0  0  0  0  0  0  0  0  0  0  0  0
   11.8906   45.7657   32.9469 H   0  0  0  0  0  0  0  0  0  0  0  0
    9.3412   43.8329   31.4766 H   0  0  0  0  0  0  0  0  0  0  0  0
   10.7228   44.8812   31.1558 H   0  0  0  0  0  0  0  0  0  0  0  0
    7.0083   44.7164   31.5804 H   0  0  0  0  0  0  0  0  0  0  0  0
   10.3469   47.1832   30.4103 H   0  0  0  0  0  0  0  0  0  0  0  0
    5.4627   46.3058   30.5006 H   0  0  0  0  0  0  0  0  0  0  0  0
    8.8223   48.7580   29.3439 H   0  0  0  0  0  0  0  0  0  0  0  0
    7.2666   49.6801   28.0101 H   0  0  0  0  0  0  0  0  0  0  0  0
    7.5461   50.5482   30.3381 H   0  0  0  0  0  0  0  0  0  0  0  0
    6.8350   51.8256   29.2927 H   0  0  0  0  0  0  0  0  0  0  0  0
    5.7853   50.9054   30.4407 H   0  0  0  0  0  0  0  0  0  0  0  0
    3.7256   49.6761   29.3486 H   0  0  0  0  0  0  0  0  0  0  0  0
    4.2760   51.4817   24.7302 H   0  0  0  0  0  0  0  0  0  0  0  0
    0.0629   49.9510   26.3366 H   0  0  0  0  0  0  0  0  0  0  0  0
    0.1010   51.6575   26.9900 H   0  0  0  0  0  0  0  0  0  0  0  0
    9.8234   40.7201   31.7654 H   0  0  0  0  0  0  0  0  0  0  0  0
   11.3777   41.5549   31.4744 H   0  0  0  0  0  0  0  0  0  0  0  0
   11.7312   39.5363   30.3532 H   0  0  0  0  0  0  0  0  0  0  0  0
   10.1202   38.2696   32.6410 H   0  0  0  0  0  0  0  0  0  0  0  0
   13.6850   37.4638   31.2321 H   0  0  0  0  0  0  0  0  0  0  0  0
   10.0251   38.1792   29.7654 H   0  0  0  0  0  0  0  0  0  0  0  0
   11.2757   36.3136   32.4908 H   0  0  0  0  0  0  0  0  0  0  0  0
   11.9838   36.9111   29.7708 H   0  0  0  0  0  0  0  0  0  0  0  0
   12.3307   38.3536   34.7458 H   0  0  0  0  0  0  0  0  0  0  0  0
   16.7566   34.1786   32.4622 H   0  0  0  0  0  0  0  0  0  0  0  0
   16.6354   34.5301   37.1418 H   0  0  0  0  0  0  0  0  0  0  0  0
   15.3535   35.7355   37.5144 H   0  0  0  0  0  0  0  0  0  0  0  0
  1  2  2  0
  1  3  1  0
  3  4  1  0
  4  5  1  0
  6  1  1  0
  7  6  1  0
  6  8  1  0
  8  9  1  0
  9 10  2  0
 11  9  1  0
 10 12  1  0
 13 11  2  0
 12 14  2  0
 14 13  1  0
 14 15  1  0
 15 16  1  0
 16 17  1  0
 16 18  1  0
 18 19  2  0
 20 18  1  0
 19 21  1  0
 22 20  2  0
 20 23  1  0
 21 24  1  0
 21 25  2  0
 25 22  1  0
 23 26  1  0
 23 27  2  0
 24 28  1  0
 25 29  1  0
 28 29  1  0
  4 30  2  0
  4 31  1  0
 32 31  1  0
 32 33  1  0
 33 34  1  0
 33 35  1  0
 34 36  1  0
 35 37  1  0
 35 38  1  0
 38 36  1  0
 36 39  1  0
 38 40  1  0
 41 39  1  0
 42 39  1  0
 43 41  2  0
 41 44  1  0
 45 42  2  0
 46 43  1  0
 44 47  2  0
 44 45  1  0
 48 46  2  0
 48 47  1  0
 47 49  1  0
  6 50  1  1
  7 51  1  0
  7 52  1  0
  8 53  1  0
  8 54  1  0
 10 55  1  0
 11 56  1  0
 12 57  1  0
 13 58  1  0
 16 59  1  6
 17 60  1  0
 17 61  1  0
 17 62  1  0
 19 63  1  0
 22 64  1  0
 28 65  1  0
 28 66  1  0
 32 67  1  0
 32 68  1  0
 33 69  1  0
 35 70  1  0
 36 71  1  0
 37 72  1  0
 38 73  1  0
 40 74  1  0
 42 75  1  0
 46 76  1  0
 49 77  1  0
 49 78  1  0
M  CHG  3   5  -1  23   1  26  -1
M  END
>  <EmbedRMS>  (218) 
0.0808115995331

$$$$

     RDKit          3D

 78 83  0  0  0  0  0  0  0  0999 V2000
   10.2803   43.7665   33.8250 C   0  0  0  0  0  0  0  0  0  0  0  0
   11.4110   43.5919   34.3666 O   0  0  0  0  0  0  0  0  0  0  0  0
    9.3616   42.7252   33.7348 O   0  0  0  0  0  0  0  0  0  0  0  0
    9.8895   41.2269   34.2945 P   0  0  0  0  0  0  0  0  0  0  0  0
   10.3731   41.4568   35.8837 O   0  0  0  0  0  0  0  0  0  0  0  0
    9.9459   45.0737   33.2113 C   0  0  1  0  0  0  0  0  0  0  0  0
   11.0266   46.0293   33.4709 N   0  0  0  0  0  0  0  0  0  0  0  0
    9.7540   44.8543   31.6950 C   0  0  0  0  0  0  0  0  0  0  0  0
    8.7957   45.8414   31.0851 C   0  0  0  0  0  0  0  0  0  0  0  0
    7.4091   45.5998   31.1005 C   0  0  0  0  0  0  0  0  0  0  0  0
    9.2825   46.9875   30.4389 C   0  0  0  0  0  0  0  0  0  0  0  0
    6.5262   46.4984   30.4853 C   0  0  0  0  0  0  0  0  0  0  0  0
    8.3997   47.8865   29.8299 C   0  0  0  0  0  0  0  0  0  0  0  0
    7.0178   47.6563   29.8490 C   0  0  0  0  0  0  0  0  0  0  0  0
    6.1809   48.5967   29.2262 O   0  0  0  0  0  0  0  0  0  0  0  0
    4.7536   48.6019   29.2752 C   0  0  2  0  0  0  0  0  0  0  0  0
    4.2111   49.6043   28.2557 C   0  0  0  0  0  0  0  0  0  0  0  0
    4.2444   48.9147   30.6761 C   0  0  0  0  0  0  0  0  0  0  0  0
    3.3586   47.9874   31.2789 C   0  0  0  0  0  0  0  0  0  0  0  0
    4.5707   50.1248   31.3812 C   0  0  0  0  0  0  0  0  0  0  0  0
    2.8389   48.2790   32.5328 C   0  0  0  0  0  0  0  0  0  0  0  0
    3.9970   50.3735   32.6477 C   0  0  0  0  0  0  0  0  0  0  0  0
    5.4446   51.1187   30.8293 N   0  0  0  0  0  0  0  0  0  0  0  0
    1.9700   47.5256   33.2986 O   0  0  0  0  0  0  0  0  0  0  0  0
    3.1434   49.4220   33.1877 C   0  0  0  0  0  0  0  0  0  0  0  0
    5.0878   52.4453   30.9009 O   0  0  0  0  0  0  0  0  0  0  0  0
    6.6245   50.8293   30.5477 O   0  0  0  0  0  0  0  0  0  0  0  0
    1.7152   48.2436   34.5137 C   0  0  0  0  0  0  0  0  0  0  0  0
    2.4836   49.4492   34.4013 O   0  0  0  0  0  0  0  0  0  0  0  0
    8.8122   40.1844   34.2135 O   0  0  0  0  0  0  0  0  0  0  0  0
   11.2401   40.7950   33.3698 O   0  0  0  0  0  0  0  0  0  0  0  0
   10.9143   40.6914   31.9981 C   0  0  0  0  0  0  0  0  0  0  0  0
   11.5270   39.3911   31.4385 C   0  0  0  0  0  0  0  0  0  0  0  0
   12.7519   39.0911   32.0837 O   0  0  0  0  0  0  0  0  0  0  0  0
   10.6113   38.1932   31.6451 C   0  0  0  0  0  0  0  0  0  0  0  0
   12.9413   37.6838   32.0297 C   0  0  0  0  0  0  0  0  0  0  0  0
    9.6064   38.0877   30.6599 O   0  0  0  0  0  0  0  0  0  0  0  0
   11.5822   37.0197   31.6877 C   0  0  0  0  0  0  0  0  0  0  0  0
   13.4840   37.2104   33.3254 N   0  0  0  0  0  0  0  0  0  0  0  0
   11.6179   36.3072   30.4690 O   0  0  0  0  0  0  0  0  0  0  0  0
   14.4797   36.3309   33.5738 C   0  0  0  0  0  0  0  0  0  0  0  0
   13.1136   37.6269   34.5702 C   0  0  0  0  0  0  0  0  0  0  0  0
   15.2074   35.6152   32.6747 N   0  0  0  0  0  0  0  0  0  0  0  0
   14.6756   36.2298   34.9190 C   0  0  0  0  0  0  0  0  0  0  0  0
   13.8217   37.0445   35.5793 N   0  0  0  0  0  0  0  0  0  0  0  0
   16.1643   34.7603   33.1551 C   0  0  0  0  0  0  0  0  0  0  0  0
   15.6528   35.3503   35.4136 C   0  0  0  0  0  0  0  0  0  0  0  0
   16.3798   34.6316   34.5046 N   0  0  0  0  0  0  0  0  0  0  0  0
   15.9004   35.1930   36.8094 N   0  0  0  0  0  0  0  0  0  0  0  0
    8.9995   45.4383   33.6722 H   0  0  0  0  0  0  0  0  0  0  0  0
   11.0501   46.2278   34.4983 H   0  0  0  0  0  0  0  0  0  0  0  0
   10.7764   46.9370   33.0160 H   0  0  0  0  0  0  0  0  0  0  0  0
    9.3645   43.8355   31.4712 H   0  0  0  0  0  0  0  0  0  0  0  0
   10.7412   44.9080   31.1837 H   0  0  0  0  0  0  0  0  0  0  0  0
    7.0152   44.7134   31.5825 H   0  0  0  0  0  0  0  0  0  0  0  0
   10.3463   47.1872   30.4042 H   0  0  0  0  0  0  0  0  0  0  0  0
    5.4706   46.2748   30.5066 H   0  0  0  0  0  0  0  0  0  0  0  0
    8.7916   48.7689   29.3402 H   0  0  0  0  0  0  0  0  0  0  0  0
    4.3893   47.6044   28.9425 H   0  0  0  0  0  0  0  0  0  0  0  0
    4.6136   50.6219   28.4334 H   0  0  0  0  0  0  0  0  0  0  0  0
    4.5071   49.2908   27.2321 H   0  0  0  0  0  0  0  0  0  0  0  0
    3.1016   49.6386   28.3045 H   0  0  0  0  0  0  0  0  0  0  0  0
    3.0718   47.0692   30.7821 H   0  0  0  0  0  0  0  0  0  0  0  0
    4.2212   51.2783   33.1980 H   0  0  0  0  0  0  0  0  0  0  0  0
    2.0568   47.6515   35.3885 H   0  0  0  0  0  0  0  0  0  0  0  0
    0.6347   48.4843   34.5981 H   0  0  0  0  0  0  0  0  0  0  0  0
    9.8233   40.7200   31.7651 H   0  0  0  0  0  0  0  0  0  0  0  0
   11.3775   41.5548   31.4741 H   0  0  0  0  0  0  0  0  0  0  0  0
   11.7312   39.5361   30.3532 H   0  0  0  0  0  0  0  0  0  0  0  0
   10.1202   38.2696   32.6410 H   0  0  0  0  0  0  0  0  0  0  0  0
   13.6850   37.4639   31.2321 H   0  0  0  0  0  0  0  0  0  0  0  0
   10.0251   38.1792   29.7654 H   0  0  0  0  0  0  0  0  0  0  0  0
   11.2757   36.3135   32.4907 H   0  0  0  0  0  0  0  0  0  0  0  0
   11.9839   36.9111   29.7708 H   0  0  0  0  0  0  0  0  0  0  0  0
   12.3307   38.3536   34.7458 H   0  0  0  0  0  0  0  0  0  0  0  0
   16.7566   34.1787   32.4623 H   0  0  0  0  0  0  0  0  0  0  0  0
   15.3535   35.7355   37.5144 H   0  0  0  0  0  0  0  0  0  0  0  0
   16.6353   34.5301   37.1419 H   0  0  0  0  0  0  0  0  0  0  0  0
  1  2  2  0
  1  3  1  0
  3  4  1  0
  4  5  1  0
  6  1  1  0
  7  6  1  0
  6  8  1  0
  8  9  1  0
  9 10  2  0
 11  9  1  0
 10 12  1  0
 13 11  2  0
 12 14  2  0
 14 13  1  0
 14 15  1  0
 15 16  1  0
 16 17  1  0
 16 18  1  0
 18 19  2  0
 20 18  1  0
 19 21  1  0
 22 20  2  0
 20 23  1  0
 21 24  1  0
 21 25  2  0
 25 22  1  0
 23 26  1  0
 23 27  2  0
 24 28  1  0
 25 29  1  0
 28 29  1  0
  4 30  2  0
  4 31  1  0
 32 31  1  0
 32 33  1  0
 33 34  1  0
 33 35  1  0
 34 36  1  0
 35 37  1  0
 35 38  1  0
 38 36  1  0
 36 39  1  0
 38 40  1  0
 41 39  1  0
 42 39  1  0
 43 41  2  0
 41 44  1  0
 45 42  2  0
 46 43  1  0
 44 47  2  0
 44 45  1  0
 48 46  2  0
 48 47  1  0
 47 49  1  0
  6 50  1  1
  7 51  1  0
  7 52  1  0
  8 53  1  0
  8 54  1  0
 10 55  1  0
 11 56  1  0
 12 57  1  0
 13 58  1  0
 16 59  1  6
 17 60  1  0
 17 61  1  0
 17 62  1  0
 19 63  1  0
 22 64  1  0
 28 65  1  0
 28 66  1  0
 32 67  1  0
 32 68  1  0
 33 69  1  0
 35 70  1  0
 36 71  1  0
 37 72  1  0
 38 73  1  0
 40 74  1  0
 42 75  1  0
 46 76  1  0
 49 77  1  0
 49 78  1  0
M  CHG  3   5  -1  23   1  26  -1
M  END
>  <EmbedRMS>  (219) 
0.0806398900552

$$$$

     RDKit          3D

 78 83  0  0  0  0  0  0  0  0999 V2000
   10.2802   43.7666   33.8250 C   0  0  0  0  0  0  0  0  0  0  0  0
   11.4110   43.5920   34.3666 O   0  0  0  0  0  0  0  0  0  0  0  0
    9.3616   42.7252   33.7348 O   0  0  0  0  0  0  0  0  0  0  0  0
    9.8896   41.2270   34.2945 P   0  0  0  0  0  0  0  0  0  0  0  0
   10.3731   41.4569   35.8837 O   0  0  0  0  0  0  0  0  0  0  0  0
    9.9458   45.0738   33.2112 C   0  0  1  0  0  0  0  0  0  0  0  0
   11.0265   46.0294   33.4709 N   0  0  0  0  0  0  0  0  0  0  0  0
    9.7540   44.8542   31.6948 C   0  0  0  0  0  0  0  0  0  0  0  0
    8.7957   45.8411   31.0846 C   0  0  0  0  0  0  0  0  0  0  0  0
    7.4090   45.5997   31.1007 C   0  0  0  0  0  0  0  0  0  0  0  0
    9.2825   46.9876   30.4390 C   0  0  0  0  0  0  0  0  0  0  0  0
    6.5260   46.4983   30.4861 C   0  0  0  0  0  0  0  0  0  0  0  0
    8.3998   47.8871   29.8305 C   0  0  0  0  0  0  0  0  0  0  0  0
    7.0184   47.6556   29.8483 C   0  0  0  0  0  0  0  0  0  0  0  0
    6.1790   48.5985   29.2320 O   0  0  0  0  0  0  0  0  0  0  0  0
    4.7506   48.5486   29.2190 C   0  0  2  0  0  0  0  0  0  0  0  0
    4.2036   49.5818   28.2348 C   0  0  0  0  0  0  0  0  0  0  0  0
    4.1504   48.7577   30.6020 C   0  0  0  0  0  0  0  0  0  0  0  0
    2.9325   48.0924   30.8837 C   0  0  0  0  0  0  0  0  0  0  0  0
    4.7721   49.5447   31.6333 C   0  0  0  0  0  0  0  0  0  0  0  0
    2.3922   48.2007   32.1577 C   0  0  0  0  0  0  0  0  0  0  0  0
    4.1805   49.6040   32.9163 C   0  0  0  0  0  0  0  0  0  0  0  0
    5.9893   50.2736   31.4103 N   0  0  0  0  0  0  0  0  0  0  0  0
    1.2316   47.6350   32.6494 O   0  0  0  0  0  0  0  0  0  0  0  0
    2.9918   48.9211   33.1321 C   0  0  0  0  0  0  0  0  0  0  0  0
    6.1042   51.1228   30.3355 O   0  0  0  0  0  0  0  0  0  0  0  0
    6.8665   50.3050   32.2979 O   0  0  0  0  0  0  0  0  0  0  0  0
    1.0954   48.0275   34.0220 C   0  0  0  0  0  0  0  0  0  0  0  0
    2.2406   48.8482   34.2894 O   0  0  0  0  0  0  0  0  0  0  0  0
    8.8122   40.1844   34.2135 O   0  0  0  0  0  0  0  0  0  0  0  0
   11.2401   40.7950   33.3698 O   0  0  0  0  0  0  0  0  0  0  0  0
   10.9143   40.6914   31.9981 C   0  0  0  0  0  0  0  0  0  0  0  0
   11.5269   39.3912   31.4385 C   0  0  0  0  0  0  0  0  0  0  0  0
   12.7519   39.0911   32.0837 O   0  0  0  0  0  0  0  0  0  0  0  0
   10.6113   38.1932   31.6451 C   0  0  0  0  0  0  0  0  0  0  0  0
   12.9413   37.6838   32.0297 C   0  0  0  0  0  0  0  0  0  0  0  0
    9.6064   38.0878   30.6599 O   0  0  0  0  0  0  0  0  0  0  0  0
   11.5822   37.0197   31.6877 C   0  0  0  0  0  0  0  0  0  0  0  0
   13.4840   37.2105   33.3254 N   0  0  0  0  0  0  0  0  0  0  0  0
   11.6179   36.3072   30.4690 O   0  0  0  0  0  0  0  0  0  0  0  0
   14.4797   36.3309   33.5738 C   0  0  0  0  0  0  0  0  0  0  0  0
   13.1136   37.6269   34.5702 C   0  0  0  0  0  0  0  0  0  0  0  0
   15.2074   35.6152   32.6747 N   0  0  0  0  0  0  0  0  0  0  0  0
   14.6756   36.2298   34.9190 C   0  0  0  0  0  0  0  0  0  0  0  0
   13.8217   37.0445   35.5793 N   0  0  0  0  0  0  0  0  0  0  0  0
   16.1643   34.7603   33.1551 C   0  0  0  0  0  0  0  0  0  0  0  0
   15.6528   35.3503   35.4136 C   0  0  0  0  0  0  0  0  0  0  0  0
   16.3798   34.6316   34.5046 N   0  0  0  0  0  0  0  0  0  0  0  0
   15.9004   35.1930   36.8094 N   0  0  0  0  0  0  0  0  0  0  0  0
    8.9993   45.4383   33.6720 H   0  0  0  0  0  0  0  0  0  0  0  0
   10.7761   46.9371   33.0160 H   0  0  0  0  0  0  0  0  0  0  0  0
   11.0499   46.2279   34.4983 H   0  0  0  0  0  0  0  0  0  0  0  0
    9.3647   43.8354   31.4711 H   0  0  0  0  0  0  0  0  0  0  0  0
   10.7413   44.9081   31.1837 H   0  0  0  0  0  0  0  0  0  0  0  0
    7.0149   44.7148   31.5854 H   0  0  0  0  0  0  0  0  0  0  0  0
   10.3463   47.1877   30.4051 H   0  0  0  0  0  0  0  0  0  0  0  0
    5.4677   46.2821   30.5174 H   0  0  0  0  0  0  0  0  0  0  0  0
    8.7912   48.7710   29.3431 H   0  0  0  0  0  0  0  0  0  0  0  0
    4.4489   47.5514   28.8264 H   0  0  0  0  0  0  0  0  0  0  0  0
    4.6651   49.4296   27.2361 H   0  0  0  0  0  0  0  0  0  0  0  0
    4.4182   50.6157   28.5710 H   0  0  0  0  0  0  0  0  0  0  0  0
    3.1034   49.4649   28.1328 H   0  0  0  0  0  0  0  0  0  0  0  0
    2.4287   47.4946   30.1344 H   0  0  0  0  0  0  0  0  0  0  0  0
    4.6269   50.1815   33.7157 H   0  0  0  0  0  0  0  0  0  0  0  0
    1.1028   47.1332   34.6798 H   0  0  0  0  0  0  0  0  0  0  0  0
    0.1629   48.6132   34.1633 H   0  0  0  0  0  0  0  0  0  0  0  0
   11.3775   41.5548   31.4741 H   0  0  0  0  0  0  0  0  0  0  0  0
    9.8233   40.7200   31.7652 H   0  0  0  0  0  0  0  0  0  0  0  0
   11.7312   39.5362   30.3532 H   0  0  0  0  0  0  0  0  0  0  0  0
   10.1202   38.2696   32.6410 H   0  0  0  0  0  0  0  0  0  0  0  0
   13.6850   37.4639   31.2321 H   0  0  0  0  0  0  0  0  0  0  0  0
   10.0251   38.1792   29.7654 H   0  0  0  0  0  0  0  0  0  0  0  0
   11.2757   36.3135   32.4907 H   0  0  0  0  0  0  0  0  0  0  0  0
   11.9838   36.9111   29.7708 H   0  0  0  0  0  0  0  0  0  0  0  0
   12.3307   38.3536   34.7458 H   0  0  0  0  0  0  0  0  0  0  0  0
   16.7566   34.1787   32.4623 H   0  0  0  0  0  0  0  0  0  0  0  0
   16.6353   34.5301   37.1419 H   0  0  0  0  0  0  0  0  0  0  0  0
   15.3535   35.7355   37.5144 H   0  0  0  0  0  0  0  0  0  0  0  0
  1  2  2  0
  1  3  1  0
  3  4  1  0
  4  5  1  0
  6  1  1  0
  7  6  1  0
  6  8  1  0
  8  9  1  0
  9 10  2  0
 11  9  1  0
 10 12  1  0
 13 11  2  0
 12 14  2  0
 14 13  1  0
 14 15  1  0
 15 16  1  0
 16 17  1  0
 16 18  1  0
 18 19  2  0
 20 18  1  0
 19 21  1  0
 22 20  2  0
 20 23  1  0
 21 24  1  0
 21 25  2  0
 25 22  1  0
 23 26  1  0
 23 27  2  0
 24 28  1  0
 25 29  1  0
 28 29  1  0
  4 30  2  0
  4 31  1  0
 32 31  1  0
 32 33  1  0
 33 34  1  0
 33 35  1  0
 34 36  1  0
 35 37  1  0
 35 38  1  0
 38 36  1  0
 36 39  1  0
 38 40  1  0
 41 39  1  0
 42 39  1  0
 43 41  2  0
 41 44  1  0
 45 42  2  0
 46 43  1  0
 44 47  2  0
 44 45  1  0
 48 46  2  0
 48 47  1  0
 47 49  1  0
  6 50  1  1
  7 51  1  0
  7 52  1  0
  8 53  1  0
  8 54  1  0
 10 55  1  0
 11 56  1  0
 12 57  1  0
 13 58  1  0
 16 59  1  6
 17 60  1  0
 17 61  1  0
 17 62  1  0
 19 63  1  0
 22 64  1  0
 28 65  1  0
 28 66  1  0
 32 67  1  0
 32 68  1  0
 33 69  1  0
 35 70  1  0
 36 71  1  0
 37 72  1  0
 38 73  1  0
 40 74  1  0
 42 75  1  0
 46 76  1  0
 49 77  1  0
 49 78  1  0
M  CHG  3   5  -1  23   1  26  -1
M  END
>  <EmbedRMS>  (220) 
0.0806547418242

$$$$

     RDKit          3D

 78 83  0  0  0  0  0  0  0  0999 V2000
   10.2834   43.7662   33.8257 C   0  0  0  0  0  0  0  0  0  0  0  0
   11.4102   43.5930   34.3753 O   0  0  0  0  0  0  0  0  0  0  0  0
    9.3637   42.7255   33.7350 O   0  0  0  0  0  0  0  0  0  0  0  0
    9.8902   41.2267   34.2942 P   0  0  0  0  0  0  0  0  0  0  0  0
   10.3736   41.4561   35.8836 O   0  0  0  0  0  0  0  0  0  0  0  0
    9.9548   45.0695   33.2035 C   0  0  1  0  0  0  0  0  0  0  0  0
   11.0274   46.0322   33.4759 N   0  0  0  0  0  0  0  0  0  0  0  0
    9.7472   44.8483   31.6875 C   0  0  0  0  0  0  0  0  0  0  0  0
    8.7926   45.8407   31.0842 C   0  0  0  0  0  0  0  0  0  0  0  0
    7.4060   45.6014   31.0998 C   0  0  0  0  0  0  0  0  0  0  0  0
    9.2817   46.9881   30.4428 C   0  0  0  0  0  0  0  0  0  0  0  0
    6.5242   46.5015   30.4857 C   0  0  0  0  0  0  0  0  0  0  0  0
    8.4004   47.8884   29.8334 C   0  0  0  0  0  0  0  0  0  0  0  0
    7.0186   47.6556   29.8428 C   0  0  0  0  0  0  0  0  0  0  0  0
    6.1870   48.5955   29.2112 O   0  0  0  0  0  0  0  0  0  0  0  0
    4.7757   48.4699   29.0093 C   0  0  2  0  0  0  0  0  0  0  0  0
    4.4893   47.4485   27.9024 C   0  0  0  0  0  0  0  0  0  0  0  0
    4.2091   49.8213   28.6172 C   0  0  0  0  0  0  0  0  0  0  0  0
    4.9037   50.5920   27.6517 C   0  0  0  0  0  0  0  0  0  0  0  0
    3.0216   50.3570   29.2185 C   0  0  0  0  0  0  0  0  0  0  0  0
    4.4280   51.8604   27.3469 C   0  0  0  0  0  0  0  0  0  0  0  0
    2.5951   51.6622   28.8801 C   0  0  0  0  0  0  0  0  0  0  0  0
    2.2310   49.5894   30.1400 N   0  0  0  0  0  0  0  0  0  0  0  0
    4.9452   52.7803   26.4551 O   0  0  0  0  0  0  0  0  0  0  0  0
    3.3259   52.3749   27.9389 C   0  0  0  0  0  0  0  0  0  0  0  0
    1.8686   48.2991   29.8294 O   0  0  0  0  0  0  0  0  0  0  0  0
    1.6798   50.1528   31.1082 O   0  0  0  0  0  0  0  0  0  0  0  0
    4.1119   53.9470   26.4902 C   0  0  0  0  0  0  0  0  0  0  0  0
    3.0901   53.6456   27.4503 O   0  0  0  0  0  0  0  0  0  0  0  0
    8.8121   40.1850   34.2132 O   0  0  0  0  0  0  0  0  0  0  0  0
   11.2404   40.7941   33.3691 O   0  0  0  0  0  0  0  0  0  0  0  0
   10.9143   40.6898   31.9973 C   0  0  0  0  0  0  0  0  0  0  0  0
   11.5261   39.3885   31.4376 C   0  0  0  0  0  0  0  0  0  0  0  0
   12.7505   39.0888   32.0816 O   0  0  0  0  0  0  0  0  0  0  0  0
   10.6114   38.1910   31.6461 C   0  0  0  0  0  0  0  0  0  0  0  0
   12.9357   37.6812   32.0303 C   0  0  0  0  0  0  0  0  0  0  0  0
    9.6146   38.0859   30.6534 O   0  0  0  0  0  0  0  0  0  0  0  0
   11.5769   37.0148   31.7012 C   0  0  0  0  0  0  0  0  0  0  0  0
   13.4849   37.2112   33.3247 N   0  0  0  0  0  0  0  0  0  0  0  0
   11.6192   36.3261   30.4724 O   0  0  0  0  0  0  0  0  0  0  0  0
   14.4802   36.3313   33.5730 C   0  0  0  0  0  0  0  0  0  0  0  0
   13.1141   37.6268   34.5698 C   0  0  0  0  0  0  0  0  0  0  0  0
   15.2074   35.6151   32.6740 N   0  0  0  0  0  0  0  0  0  0  0  0
   14.6761   36.2300   34.9184 C   0  0  0  0  0  0  0  0  0  0  0  0
   13.8221   37.0445   35.5788 N   0  0  0  0  0  0  0  0  0  0  0  0
   16.1642   34.7600   33.1546 C   0  0  0  0  0  0  0  0  0  0  0  0
   15.6530   35.3503   35.4131 C   0  0  0  0  0  0  0  0  0  0  0  0
   16.3797   34.6314   34.5041 N   0  0  0  0  0  0  0  0  0  0  0  0
   15.9004   35.1930   36.8090 N   0  0  0  0  0  0  0  0  0  0  0  0
    9.0120   45.4317   33.6711 H   0  0  0  0  0  0  0  0  0  0  0  0
   11.8908   45.7659   32.9475 H   0  0  0  0  0  0  0  0  0  0  0  0
   10.7261   46.9688   33.1215 H   0  0  0  0  0  0  0  0  0  0  0  0
    9.3426   43.8330   31.4758 H   0  0  0  0  0  0  0  0  0  0  0  0
   10.7236   44.8823   31.1558 H   0  0  0  0  0  0  0  0  0  0  0  0
    7.0104   44.7171   31.5843 H   0  0  0  0  0  0  0  0  0  0  0  0
   10.3459   47.1869   30.4117 H   0  0  0  0  0  0  0  0  0  0  0  0
    5.4665   46.2860   30.5238 H   0  0  0  0  0  0  0  0  0  0  0  0
    8.7942   48.7704   29.3443 H   0  0  0  0  0  0  0  0  0  0  0  0
    4.3130   48.1316   29.9571 H   0  0  0  0  0  0  0  0  0  0  0  0
    5.0049   47.7391   26.9623 H   0  0  0  0  0  0  0  0  0  0  0  0
    4.8458   46.4410   28.1982 H   0  0  0  0  0  0  0  0  0  0  0  0
    3.3974   47.3861   27.7089 H   0  0  0  0  0  0  0  0  0  0  0  0
    5.7976   50.2204   27.1666 H   0  0  0  0  0  0  0  0  0  0  0  0
    1.7050   52.0957   29.3179 H   0  0  0  0  0  0  0  0  0  0  0  0
    3.6594   54.1259   25.4924 H   0  0  0  0  0  0  0  0  0  0  0  0
    4.6998   54.8290   26.8204 H   0  0  0  0  0  0  0  0  0  0  0  0
   11.3778   41.5527   31.4727 H   0  0  0  0  0  0  0  0  0  0  0  0
    9.8233   40.7191   31.7647 H   0  0  0  0  0  0  0  0  0  0  0  0
   11.7283   39.5313   30.3516 H   0  0  0  0  0  0  0  0  0  0  0  0
   10.1126   38.2734   32.6377 H   0  0  0  0  0  0  0  0  0  0  0  0
   13.6693   37.4565   31.2242 H   0  0  0  0  0  0  0  0  0  0  0  0
   10.0534   38.1118   29.7636 H   0  0  0  0  0  0  0  0  0  0  0  0
   11.2606   36.3148   32.5102 H   0  0  0  0  0  0  0  0  0  0  0  0
   12.1495   35.5023   30.6323 H   0  0  0  0  0  0  0  0  0  0  0  0
   12.3302   38.3525   34.7455 H   0  0  0  0  0  0  0  0  0  0  0  0
   16.7562   34.1780   32.4618 H   0  0  0  0  0  0  0  0  0  0  0  0
   16.6350   34.5298   37.1415 H   0  0  0  0  0  0  0  0  0  0  0  0
   15.3535   35.7357   37.5139 H   0  0  0  0  0  0  0  0  0  0  0  0
  1  2  2  0
  1  3  1  0
  3  4  1  0
  4  5  1  0
  6  1  1  0
  7  6  1  0
  6  8  1  0
  8  9  1  0
  9 10  2  0
 11  9  1  0
 10 12  1  0
 13 11  2  0
 12 14  2  0
 14 13  1  0
 14 15  1  0
 15 16  1  0
 16 17  1  0
 16 18  1  0
 18 19  2  0
 20 18  1  0
 19 21  1  0
 22 20  2  0
 20 23  1  0
 21 24  1  0
 21 25  2  0
 25 22  1  0
 23 26  1  0
 23 27  2  0
 24 28  1  0
 25 29  1  0
 28 29  1  0
  4 30  2  0
  4 31  1  0
 32 31  1  0
 32 33  1  0
 33 34  1  0
 33 35  1  0
 34 36  1  0
 35 37  1  0
 35 38  1  0
 38 36  1  0
 36 39  1  0
 38 40  1  0
 41 39  1  0
 42 39  1  0
 43 41  2  0
 41 44  1  0
 45 42  2  0
 46 43  1  0
 44 47  2  0
 44 45  1  0
 48 46  2  0
 48 47  1  0
 47 49  1  0
  6 50  1  1
  7 51  1  0
  7 52  1  0
  8 53  1  0
  8 54  1  0
 10 55  1  0
 11 56  1  0
 12 57  1  0
 13 58  1  0
 16 59  1  1
 17 60  1  0
 17 61  1  0
 17 62  1  0
 19 63  1  0
 22 64  1  0
 28 65  1  0
 28 66  1  0
 32 67  1  0
 32 68  1  0
 33 69  1  0
 35 70  1  0
 36 71  1  0
 37 72  1  0
 38 73  1  0
 40 74  1  0
 42 75  1  0
 46 76  1  0
 49 77  1  0
 49 78  1  0
M  CHG  3   5  -1  23   1  26  -1
M  END
>  <EmbedRMS>  (221) 
0.0816095686699

$$$$

     RDKit          3D

 78 83  0  0  0  0  0  0  0  0999 V2000
   10.2834   43.7662   33.8256 C   0  0  0  0  0  0  0  0  0  0  0  0
   11.4102   43.5930   34.3752 O   0  0  0  0  0  0  0  0  0  0  0  0
    9.3637   42.7255   33.7348 O   0  0  0  0  0  0  0  0  0  0  0  0
    9.8906   41.2266   34.2933 P   0  0  0  0  0  0  0  0  0  0  0  0
   10.3743   41.4557   35.8827 O   0  0  0  0  0  0  0  0  0  0  0  0
    9.9547   45.0696   33.2036 C   0  0  1  0  0  0  0  0  0  0  0  0
   11.0272   46.0323   33.4760 N   0  0  0  0  0  0  0  0  0  0  0  0
    9.7471   44.8485   31.6876 C   0  0  0  0  0  0  0  0  0  0  0  0
    8.7925   45.8410   31.0845 C   0  0  0  0  0  0  0  0  0  0  0  0
    7.4059   45.6007   31.0991 C   0  0  0  0  0  0  0  0  0  0  0  0
    9.2817   46.9877   30.4415 C   0  0  0  0  0  0  0  0  0  0  0  0
    6.5246   46.5003   30.4842 C   0  0  0  0  0  0  0  0  0  0  0  0
    8.4005   47.8879   29.8316 C   0  0  0  0  0  0  0  0  0  0  0  0
    7.0186   47.6575   29.8476 C   0  0  0  0  0  0  0  0  0  0  0  0
    6.1810   48.5973   29.2247 O   0  0  0  0  0  0  0  0  0  0  0  0
    4.7511   48.5641   29.2335 C   0  0  2  0  0  0  0  0  0  0  0  0
    4.2295   49.6255   28.2663 C   0  0  0  0  0  0  0  0  0  0  0  0
    4.2202   48.8291   30.6322 C   0  0  0  0  0  0  0  0  0  0  0  0
    4.8056   49.8717   31.3917 C   0  0  0  0  0  0  0  0  0  0  0  0
    3.1916   48.0233   31.2228 C   0  0  0  0  0  0  0  0  0  0  0  0
    4.3853   50.0542   32.7024 C   0  0  0  0  0  0  0  0  0  0  0  0
    2.8157   48.2464   32.5675 C   0  0  0  0  0  0  0  0  0  0  0  0
    2.5150   47.0003   30.4758 N   0  0  0  0  0  0  0  0  0  0  0  0
    4.8213   50.9886   33.6220 O   0  0  0  0  0  0  0  0  0  0  0  0
    3.4364   49.2727   33.2671 C   0  0  0  0  0  0  0  0  0  0  0  0
    2.0157   47.2758   29.2239 O   0  0  0  0  0  0  0  0  0  0  0  0
    2.1807   45.9364   31.0368 O   0  0  0  0  0  0  0  0  0  0  0  0
    4.0973   50.7793   34.8422 C   0  0  0  0  0  0  0  0  0  0  0  0
    3.2236   49.6747   34.5717 O   0  0  0  0  0  0  0  0  0  0  0  0
    8.8122   40.1851   34.2127 O   0  0  0  0  0  0  0  0  0  0  0  0
   11.2406   40.7945   33.3671 O   0  0  0  0  0  0  0  0  0  0  0  0
   10.9134   40.6866   31.9954 C   0  0  0  0  0  0  0  0  0  0  0  0
   11.5167   39.3787   31.4404 C   0  0  0  0  0  0  0  0  0  0  0  0
   12.7486   39.0849   32.0735 O   0  0  0  0  0  0  0  0  0  0  0  0
   10.6039   38.1884   31.6669 C   0  0  0  0  0  0  0  0  0  0  0  0
   12.9329   37.6776   32.0284 C   0  0  0  0  0  0  0  0  0  0  0  0
    9.6374   38.0938   30.6484 O   0  0  0  0  0  0  0  0  0  0  0  0
   11.5737   37.0141   31.7055 C   0  0  0  0  0  0  0  0  0  0  0  0
   13.4853   37.2120   33.3238 N   0  0  0  0  0  0  0  0  0  0  0  0
   11.6210   36.3379   30.4684 O   0  0  0  0  0  0  0  0  0  0  0  0
   14.4804   36.3319   33.5726 C   0  0  0  0  0  0  0  0  0  0  0  0
   13.1141   37.6275   34.5689 C   0  0  0  0  0  0  0  0  0  0  0  0
   15.2075   35.6152   32.6740 N   0  0  0  0  0  0  0  0  0  0  0  0
   14.6761   36.2306   34.9181 C   0  0  0  0  0  0  0  0  0  0  0  0
   13.8218   37.0451   35.5783 N   0  0  0  0  0  0  0  0  0  0  0  0
   16.1642   34.7600   33.1548 C   0  0  0  0  0  0  0  0  0  0  0  0
   15.6528   35.3506   35.4131 C   0  0  0  0  0  0  0  0  0  0  0  0
   16.3795   34.6315   34.5043 N   0  0  0  0  0  0  0  0  0  0  0  0
   15.9001   35.1933   36.8090 N   0  0  0  0  0  0  0  0  0  0  0  0
    9.0119   45.4318   33.6713 H   0  0  0  0  0  0  0  0  0  0  0  0
   10.7259   46.9689   33.1217 H   0  0  0  0  0  0  0  0  0  0  0  0
   11.8907   45.7661   32.9476 H   0  0  0  0  0  0  0  0  0  0  0  0
   10.7236   44.8826   31.1559 H   0  0  0  0  0  0  0  0  0  0  0  0
    9.3426   43.8332   31.4758 H   0  0  0  0  0  0  0  0  0  0  0  0
    7.0103   44.7148   31.5805 H   0  0  0  0  0  0  0  0  0  0  0  0
   10.3460   47.1860   30.4096 H   0  0  0  0  0  0  0  0  0  0  0  0
    5.4671   46.2818   30.5092 H   0  0  0  0  0  0  0  0  0  0  0  0
    8.7936   48.7706   29.3433 H   0  0  0  0  0  0  0  0  0  0  0  0
    4.4269   47.5749   28.8502 H   0  0  0  0  0  0  0  0  0  0  0  0
    3.1188   49.6270   28.2552 H   0  0  0  0  0  0  0  0  0  0  0  0
    4.5917   49.4068   27.2394 H   0  0  0  0  0  0  0  0  0  0  0  0
    4.5895   50.6346   28.5605 H   0  0  0  0  0  0  0  0  0  0  0  0
    5.5813   50.5050   30.9801 H   0  0  0  0  0  0  0  0  0  0  0  0
    2.0461   47.6525   33.0437 H   0  0  0  0  0  0  0  0  0  0  0  0
    4.7972   50.5218   35.6647 H   0  0  0  0  0  0  0  0  0  0  0  0
    3.5049   51.6830   35.0970 H   0  0  0  0  0  0  0  0  0  0  0  0
   11.3828   41.5438   31.4669 H   0  0  0  0  0  0  0  0  0  0  0  0
    9.8226   40.7225   31.7631 H   0  0  0  0  0  0  0  0  0  0  0  0
   11.6979   39.5037   30.3478 H   0  0  0  0  0  0  0  0  0  0  0  0
   10.1084   38.2787   32.6627 H   0  0  0  0  0  0  0  0  0  0  0  0
   13.6638   37.4472   31.2214 H   0  0  0  0  0  0  0  0  0  0  0  0
    8.9763   37.4191   30.9532 H   0  0  0  0  0  0  0  0  0  0  0  0
   11.2821   36.3054   32.5172 H   0  0  0  0  0  0  0  0  0  0  0  0
   10.8658   35.6935   30.4652 H   0  0  0  0  0  0  0  0  0  0  0  0
   12.3293   38.3523   34.7444 H   0  0  0  0  0  0  0  0  0  0  0  0
   16.7561   34.1778   32.4621 H   0  0  0  0  0  0  0  0  0  0  0  0
   16.6345   34.5300   37.1416 H   0  0  0  0  0  0  0  0  0  0  0  0
   15.3533   35.7361   37.5138 H   0  0  0  0  0  0  0  0  0  0  0  0
  1  2  2  0
  1  3  1  0
  3  4  1  0
  4  5  1  0
  6  1  1  0
  7  6  1  0
  6  8  1  0
  8  9  1  0
  9 10  2  0
 11  9  1  0
 10 12  1  0
 13 11  2  0
 12 14  2  0
 14 13  1  0
 14 15  1  0
 15 16  1  0
 16 17  1  0
 16 18  1  0
 18 19  2  0
 20 18  1  0
 19 21  1  0
 22 20  2  0
 20 23  1  0
 21 24  1  0
 21 25  2  0
 25 22  1  0
 23 26  1  0
 23 27  2  0
 24 28  1  0
 25 29  1  0
 28 29  1  0
  4 30  2  0
  4 31  1  0
 32 31  1  0
 32 33  1  0
 33 34  1  0
 33 35  1  0
 34 36  1  0
 35 37  1  0
 35 38  1  0
 38 36  1  0
 36 39  1  0
 38 40  1  0
 41 39  1  0
 42 39  1  0
 43 41  2  0
 41 44  1  0
 45 42  2  0
 46 43  1  0
 44 47  2  0
 44 45  1  0
 48 46  2  0
 48 47  1  0
 47 49  1  0
  6 50  1  1
  7 51  1  0
  7 52  1  0
  8 53  1  0
  8 54  1  0
 10 55  1  0
 11 56  1  0
 12 57  1  0
 13 58  1  0
 16 59  1  6
 17 60  1  0
 17 61  1  0
 17 62  1  0
 19 63  1  0
 22 64  1  0
 28 65  1  0
 28 66  1  0
 32 67  1  0
 32 68  1  0
 33 69  1  0
 35 70  1  0
 36 71  1  0
 37 72  1  0
 38 73  1  0
 40 74  1  0
 42 75  1  0
 46 76  1  0
 49 77  1  0
 49 78  1  0
M  CHG  3   5  -1  23   1  26  -1
M  END
>  <EmbedRMS>  (222) 
0.0825490374237

$$$$

     RDKit          3D

 78 83  0  0  0  0  0  0  0  0999 V2000
   10.2837   43.7627   33.8272 C   0  0  0  0  0  0  0  0  0  0  0  0
   11.4102   43.5865   34.3764 O   0  0  0  0  0  0  0  0  0  0  0  0
    9.3630   42.7236   33.7351 O   0  0  0  0  0  0  0  0  0  0  0  0
    9.8898   41.2248   34.2934 P   0  0  0  0  0  0  0  0  0  0  0  0
   10.3734   41.4544   35.8829 O   0  0  0  0  0  0  0  0  0  0  0  0
    9.9547   45.0700   33.2059 C   0  0  1  0  0  0  0  0  0  0  0  0
   11.0197   46.0481   33.4564 N   0  0  0  0  0  0  0  0  0  0  0  0
    9.7499   44.8510   31.6917 C   0  0  0  0  0  0  0  0  0  0  0  0
    8.7939   45.8418   31.0861 C   0  0  0  0  0  0  0  0  0  0  0  0
    7.4057   45.6014   31.1013 C   0  0  0  0  0  0  0  0  0  0  0  0
    9.2835   46.9911   30.4454 C   0  0  0  0  0  0  0  0  0  0  0  0
    6.5255   46.5035   30.4872 C   0  0  0  0  0  0  0  0  0  0  0  0
    8.4021   47.8917   29.8354 C   0  0  0  0  0  0  0  0  0  0  0  0
    7.0213   47.6452   29.8433 C   0  0  0  0  0  0  0  0  0  0  0  0
    6.1367   48.5439   29.2413 O   0  0  0  0  0  0  0  0  0  0  0  0
    5.8647   48.5749   27.8366 C   0  0  2  0  0  0  0  0  0  0  0  0
    5.0011   47.3800   27.4128 C   0  0  0  0  0  0  0  0  0  0  0  0
    7.1346   48.8131   27.0207 C   0  0  0  0  0  0  0  0  0  0  0  0
    7.5818   50.1550   26.9289 C   0  0  0  0  0  0  0  0  0  0  0  0
    7.9023   47.7850   26.3699 C   0  0  0  0  0  0  0  0  0  0  0  0
    8.7260   50.4323   26.1928 C   0  0  0  0  0  0  0  0  0  0  0  0
    9.0516   48.1284   25.6256 C   0  0  0  0  0  0  0  0  0  0  0  0
    7.5556   46.4017   26.4590 N   0  0  0  0  0  0  0  0  0  0  0  0
    9.3291   51.6554   25.9709 O   0  0  0  0  0  0  0  0  0  0  0  0
    9.4279   49.4622   25.5657 C   0  0  0  0  0  0  0  0  0  0  0  0
    7.8839   45.6961   27.5920 O   0  0  0  0  0  0  0  0  0  0  0  0
    7.2660   45.7750   25.4194 O   0  0  0  0  0  0  0  0  0  0  0  0
   10.4846   51.4362   25.1502 C   0  0  0  0  0  0  0  0  0  0  0  0
   10.5104   50.0218   24.9147 O   0  0  0  0  0  0  0  0  0  0  0  0
    8.8115   40.1834   34.2126 O   0  0  0  0  0  0  0  0  0  0  0  0
   11.2402   40.7936   33.3673 O   0  0  0  0  0  0  0  0  0  0  0  0
   10.9134   40.6864   31.9955 C   0  0  0  0  0  0  0  0  0  0  0  0
   11.5166   39.3786   31.4404 C   0  0  0  0  0  0  0  0  0  0  0  0
   12.7486   39.0849   32.0734 O   0  0  0  0  0  0  0  0  0  0  0  0
   10.6039   38.1883   31.6669 C   0  0  0  0  0  0  0  0  0  0  0  0
   12.9329   37.6775   32.0284 C   0  0  0  0  0  0  0  0  0  0  0  0
    9.6373   38.0938   30.6484 O   0  0  0  0  0  0  0  0  0  0  0  0
   11.5737   37.0140   31.7055 C   0  0  0  0  0  0  0  0  0  0  0  0
   13.4853   37.2120   33.3238 N   0  0  0  0  0  0  0  0  0  0  0  0
   11.6210   36.3379   30.4683 O   0  0  0  0  0  0  0  0  0  0  0  0
   14.4804   36.3319   33.5726 C   0  0  0  0  0  0  0  0  0  0  0  0
   13.1141   37.6275   34.5689 C   0  0  0  0  0  0  0  0  0  0  0  0
   15.2076   35.6152   32.6740 N   0  0  0  0  0  0  0  0  0  0  0  0
   14.6761   36.2307   34.9181 C   0  0  0  0  0  0  0  0  0  0  0  0
   13.8218   37.0451   35.5783 N   0  0  0  0  0  0  0  0  0  0  0  0
   16.1642   34.7600   33.1548 C   0  0  0  0  0  0  0  0  0  0  0  0
   15.6528   35.3507   35.4131 C   0  0  0  0  0  0  0  0  0  0  0  0
   16.3795   34.6315   34.5043 N   0  0  0  0  0  0  0  0  0  0  0  0
   15.9001   35.1933   36.8090 N   0  0  0  0  0  0  0  0  0  0  0  0
    9.0097   45.4349   33.6665 H   0  0  0  0  0  0  0  0  0  0  0  0
   11.1133   46.1992   34.4877 H   0  0  0  0  0  0  0  0  0  0  0  0
   11.9347   45.6934   33.0919 H   0  0  0  0  0  0  0  0  0  0  0  0
   10.7300   44.8927   31.1666 H   0  0  0  0  0  0  0  0  0  0  0  0
    9.3506   43.8345   31.4755 H   0  0  0  0  0  0  0  0  0  0  0  0
    7.0092   44.7173   31.5850 H   0  0  0  0  0  0  0  0  0  0  0  0
   10.3472   47.1928   30.4191 H   0  0  0  0  0  0  0  0  0  0  0  0
    5.4603   46.3119   30.5057 H   0  0  0  0  0  0  0  0  0  0  0  0
    8.7936   48.7802   29.3577 H   0  0  0  0  0  0  0  0  0  0  0  0
    5.2083   49.4570   27.6651 H   0  0  0  0  0  0  0  0  0  0  0  0
    3.9838   47.4892   27.8458 H   0  0  0  0  0  0  0  0  0  0  0  0
    5.4100   46.4227   27.7896 H   0  0  0  0  0  0  0  0  0  0  0  0
    4.9032   47.3435   26.3070 H   0  0  0  0  0  0  0  0  0  0  0  0
    7.0506   50.9622   27.4177 H   0  0  0  0  0  0  0  0  0  0  0  0
    9.6417   47.3712   25.1252 H   0  0  0  0  0  0  0  0  0  0  0  0
   10.3826   51.9828   24.1893 H   0  0  0  0  0  0  0  0  0  0  0  0
   11.4031   51.7519   25.6879 H   0  0  0  0  0  0  0  0  0  0  0  0
   11.3831   41.5438   31.4675 H   0  0  0  0  0  0  0  0  0  0  0  0
    9.8226   40.7226   31.7628 H   0  0  0  0  0  0  0  0  0  0  0  0
   11.6978   39.5037   30.3478 H   0  0  0  0  0  0  0  0  0  0  0  0
   10.1084   38.2786   32.6626 H   0  0  0  0  0  0  0  0  0  0  0  0
   13.6638   37.4471   31.2214 H   0  0  0  0  0  0  0  0  0  0  0  0
    8.9763   37.4190   30.9532 H   0  0  0  0  0  0  0  0  0  0  0  0
   11.2821   36.3054   32.5171 H   0  0  0  0  0  0  0  0  0  0  0  0
   10.8658   35.6935   30.4652 H   0  0  0  0  0  0  0  0  0  0  0  0
   12.3293   38.3523   34.7444 H   0  0  0  0  0  0  0  0  0  0  0  0
   16.7561   34.1778   32.4621 H   0  0  0  0  0  0  0  0  0  0  0  0
   16.6345   34.5300   37.1416 H   0  0  0  0  0  0  0  0  0  0  0  0
   15.3533   35.7361   37.5138 H   0  0  0  0  0  0  0  0  0  0  0  0
  1  2  2  0
  1  3  1  0
  3  4  1  0
  4  5  1  0
  6  1  1  0
  7  6  1  0
  6  8  1  0
  8  9  1  0
  9 10  2  0
 11  9  1  0
 10 12  1  0
 13 11  2  0
 12 14  2  0
 14 13  1  0
 14 15  1  0
 15 16  1  0
 16 17  1  0
 16 18  1  0
 18 19  2  0
 20 18  1  0
 19 21  1  0
 22 20  2  0
 20 23  1  0
 21 24  1  0
 21 25  2  0
 25 22  1  0
 23 26  1  0
 23 27  2  0
 24 28  1  0
 25 29  1  0
 28 29  1  0
  4 30  2  0
  4 31  1  0
 32 31  1  0
 32 33  1  0
 33 34  1  0
 33 35  1  0
 34 36  1  0
 35 37  1  0
 35 38  1  0
 38 36  1  0
 36 39  1  0
 38 40  1  0
 41 39  1  0
 42 39  1  0
 43 41  2  0
 41 44  1  0
 45 42  2  0
 46 43  1  0
 44 47  2  0
 44 45  1  0
 48 46  2  0
 48 47  1  0
 47 49  1  0
  6 50  1  1
  7 51  1  0
  7 52  1  0
  8 53  1  0
  8 54  1  0
 10 55  1  0
 11 56  1  0
 12 57  1  0
 13 58  1  0
 16 59  1  1
 17 60  1  0
 17 61  1  0
 17 62  1  0
 19 63  1  0
 22 64  1  0
 28 65  1  0
 28 66  1  0
 32 67  1  0
 32 68  1  0
 33 69  1  0
 35 70  1  0
 36 71  1  0
 37 72  1  0
 38 73  1  0
 40 74  1  0
 42 75  1  0
 46 76  1  0
 49 77  1  0
 49 78  1  0
M  CHG  3   5  -1  23   1  26  -1
M  END
>  <EmbedRMS>  (223) 
0.0835708516509

$$$$

     RDKit          3D

 78 83  0  0  0  0  0  0  0  0999 V2000
   10.2836   43.7661   33.8257 C   0  0  0  0  0  0  0  0  0  0  0  0
   11.4103   43.5930   34.3753 O   0  0  0  0  0  0  0  0  0  0  0  0
    9.3641   42.7252   33.7347 O   0  0  0  0  0  0  0  0  0  0  0  0
    9.8908   41.2264   34.2939 P   0  0  0  0  0  0  0  0  0  0  0  0
   10.3732   41.4558   35.8836 O   0  0  0  0  0  0  0  0  0  0  0  0
    9.9547   45.0694   33.2036 C   0  0  1  0  0  0  0  0  0  0  0  0
   11.0273   46.0321   33.4757 N   0  0  0  0  0  0  0  0  0  0  0  0
    9.7466   44.8480   31.6878 C   0  0  0  0  0  0  0  0  0  0  0  0
    8.7923   45.8408   31.0847 C   0  0  0  0  0  0  0  0  0  0  0  0
    7.4058   45.6014   31.0989 C   0  0  0  0  0  0  0  0  0  0  0  0
    9.2820   46.9875   30.4424 C   0  0  0  0  0  0  0  0  0  0  0  0
    6.5273   46.5028   30.4835 C   0  0  0  0  0  0  0  0  0  0  0  0
    8.4034   47.8898   29.8310 C   0  0  0  0  0  0  0  0  0  0  0  0
    7.0132   47.6540   29.8480 C   0  0  0  0  0  0  0  0  0  0  0  0
    6.0818   48.5163   29.2453 O   0  0  0  0  0  0  0  0  0  0  0  0
    6.3745   49.7645   28.6102 C   0  0  2  0  0  0  0  0  0  0  0  0
    6.6322   50.8292   29.6882 C   0  0  0  0  0  0  0  0  0  0  0  0
    5.2354   50.0900   27.6448 C   0  0  0  0  0  0  0  0  0  0  0  0
    4.4915   51.2987   27.7544 C   0  0  0  0  0  0  0  0  0  0  0  0
    4.8663   49.1458   26.6222 C   0  0  0  0  0  0  0  0  0  0  0  0
    3.4304   51.5119   26.8849 C   0  0  0  0  0  0  0  0  0  0  0  0
    3.7653   49.4158   25.7786 C   0  0  0  0  0  0  0  0  0  0  0  0
    5.5731   47.9065   26.4390 N   0  0  0  0  0  0  0  0  0  0  0  0
    2.5817   52.6005   26.8189 O   0  0  0  0  0  0  0  0  0  0  0  0
    3.0809   50.6102   25.9418 C   0  0  0  0  0  0  0  0  0  0  0  0
    4.8856   46.7791   26.0523 O   0  0  0  0  0  0  0  0  0  0  0  0
    6.8205   47.8817   26.4253 O   0  0  0  0  0  0  0  0  0  0  0  0
    1.6395   52.3641   25.7642 C   0  0  0  0  0  0  0  0  0  0  0  0
    1.9942   51.0814   25.2304 O   0  0  0  0  0  0  0  0  0  0  0  0
    8.8127   40.1847   34.2122 O   0  0  0  0  0  0  0  0  0  0  0  0
   11.2421   40.7941   33.3697 O   0  0  0  0  0  0  0  0  0  0  0  0
   10.9187   40.6911   31.9971 C   0  0  0  0  0  0  0  0  0  0  0  0
   11.5172   39.3815   31.4407 C   0  0  0  0  0  0  0  0  0  0  0  0
   12.7493   39.0856   32.0728 O   0  0  0  0  0  0  0  0  0  0  0  0
   10.6023   38.1908   31.6665 C   0  0  0  0  0  0  0  0  0  0  0  0
   12.9319   37.6781   32.0281 C   0  0  0  0  0  0  0  0  0  0  0  0
    9.6392   38.0798   30.6452 O   0  0  0  0  0  0  0  0  0  0  0  0
   11.5715   37.0166   31.7056 C   0  0  0  0  0  0  0  0  0  0  0  0
   13.4847   37.2121   33.3235 N   0  0  0  0  0  0  0  0  0  0  0  0
   11.6187   36.3384   30.4695 O   0  0  0  0  0  0  0  0  0  0  0  0
   14.4801   36.3321   33.5724 C   0  0  0  0  0  0  0  0  0  0  0  0
   13.1137   37.6275   34.5688 C   0  0  0  0  0  0  0  0  0  0  0  0
   15.2073   35.6153   32.6738 N   0  0  0  0  0  0  0  0  0  0  0  0
   14.6759   36.2308   34.9179 C   0  0  0  0  0  0  0  0  0  0  0  0
   13.8216   37.0452   35.5781 N   0  0  0  0  0  0  0  0  0  0  0  0
   16.1640   34.7602   33.1546 C   0  0  0  0  0  0  0  0  0  0  0  0
   15.6526   35.3508   35.4129 C   0  0  0  0  0  0  0  0  0  0  0  0
   16.3794   34.6317   34.5041 N   0  0  0  0  0  0  0  0  0  0  0  0
   15.8999   35.1934   36.8088 N   0  0  0  0  0  0  0  0  0  0  0  0
    9.0121   45.4316   33.6716 H   0  0  0  0  0  0  0  0  0  0  0  0
   10.7259   46.9687   33.1214 H   0  0  0  0  0  0  0  0  0  0  0  0
   11.8906   45.7658   32.9470 H   0  0  0  0  0  0  0  0  0  0  0  0
   10.7229   44.8814   31.1557 H   0  0  0  0  0  0  0  0  0  0  0  0
    9.3414   43.8329   31.4763 H   0  0  0  0  0  0  0  0  0  0  0  0
    7.0086   44.7163   31.5803 H   0  0  0  0  0  0  0  0  0  0  0  0
   10.3468   47.1838   30.4111 H   0  0  0  0  0  0  0  0  0  0  0  0
    5.4629   46.3052   30.5001 H   0  0  0  0  0  0  0  0  0  0  0  0
    8.8224   48.7597   29.3474 H   0  0  0  0  0  0  0  0  0  0  0  0
    7.2974   49.6835   28.0006 H   0  0  0  0  0  0  0  0  0  0  0  0
    5.7333   50.9618   30.3273 H   0  0  0  0  0  0  0  0  0  0  0  0
    6.9134   51.7961   29.2193 H   0  0  0  0  0  0  0  0  0  0  0  0
    7.4719   50.5205   30.3438 H   0  0  0  0  0  0  0  0  0  0  0  0
    4.7071   52.0577   28.4914 H   0  0  0  0  0  0  0  0  0  0  0  0
    3.4630   48.7204   25.0062 H   0  0  0  0  0  0  0  0  0  0  0  0
    1.7356   53.1450   24.9810 H   0  0  0  0  0  0  0  0  0  0  0  0
    0.6067   52.3378   26.1705 H   0  0  0  0  0  0  0  0  0  0  0  0
   11.3968   41.5460   31.4729 H   0  0  0  0  0  0  0  0  0  0  0  0
    9.8299   40.7410   31.7613 H   0  0  0  0  0  0  0  0  0  0  0  0
   11.6975   39.5067   30.3481 H   0  0  0  0  0  0  0  0  0  0  0  0
   10.1077   38.2648   32.6645 H   0  0  0  0  0  0  0  0  0  0  0  0
   13.6621   37.4467   31.2209 H   0  0  0  0  0  0  0  0  0  0  0  0
    8.8975   38.6944   30.8831 H   0  0  0  0  0  0  0  0  0  0  0  0
   11.2806   36.3073   32.5170 H   0  0  0  0  0  0  0  0  0  0  0  0
   10.8492   35.7110   30.4586 H   0  0  0  0  0  0  0  0  0  0  0  0
   12.3290   38.3524   34.7444 H   0  0  0  0  0  0  0  0  0  0  0  0
   16.7559   34.1780   32.4619 H   0  0  0  0  0  0  0  0  0  0  0  0
   16.6344   34.5301   37.1414 H   0  0  0  0  0  0  0  0  0  0  0  0
   15.3531   35.7362   37.5137 H   0  0  0  0  0  0  0  0  0  0  0  0
  1  2  2  0
  1  3  1  0
  3  4  1  0
  4  5  1  0
  6  1  1  0
  7  6  1  0
  6  8  1  0
  8  9  1  0
  9 10  2  0
 11  9  1  0
 10 12  1  0
 13 11  2  0
 12 14  2  0
 14 13  1  0
 14 15  1  0
 15 16  1  0
 16 17  1  0
 16 18  1  0
 18 19  2  0
 20 18  1  0
 19 21  1  0
 22 20  2  0
 20 23  1  0
 21 24  1  0
 21 25  2  0
 25 22  1  0
 23 26  1  0
 23 27  2  0
 24 28  1  0
 25 29  1  0
 28 29  1  0
  4 30  2  0
  4 31  1  0
 32 31  1  0
 32 33  1  0
 33 34  1  0
 33 35  1  0
 34 36  1  0
 35 37  1  0
 35 38  1  0
 38 36  1  0
 36 39  1  0
 38 40  1  0
 41 39  1  0
 42 39  1  0
 43 41  2  0
 41 44  1  0
 45 42  2  0
 46 43  1  0
 44 47  2  0
 44 45  1  0
 48 46  2  0
 48 47  1  0
 47 49  1  0
  6 50  1  1
  7 51  1  0
  7 52  1  0
  8 53  1  0
  8 54  1  0
 10 55  1  0
 11 56  1  0
 12 57  1  0
 13 58  1  0
 16 59  1  6
 17 60  1  0
 17 61  1  0
 17 62  1  0
 19 63  1  0
 22 64  1  0
 28 65  1  0
 28 66  1  0
 32 67  1  0
 32 68  1  0
 33 69  1  0
 35 70  1  0
 36 71  1  0
 37 72  1  0
 38 73  1  0
 40 74  1  0
 42 75  1  0
 46 76  1  0
 49 77  1  0
 49 78  1  0
M  CHG  3   5  -1  23   1  26  -1
M  END
>  <EmbedRMS>  (224) 
0.0829344892648

$$$$

     RDKit          3D

 78 83  0  0  0  0  0  0  0  0999 V2000
   10.2834   43.7662   33.8257 C   0  0  0  0  0  0  0  0  0  0  0  0
   11.4102   43.5931   34.3753 O   0  0  0  0  0  0  0  0  0  0  0  0
    9.3638   42.7255   33.7350 O   0  0  0  0  0  0  0  0  0  0  0  0
    9.8904   41.2268   34.2946 P   0  0  0  0  0  0  0  0  0  0  0  0
   10.3728   41.4560   35.8842 O   0  0  0  0  0  0  0  0  0  0  0  0
    9.9545   45.0696   33.2036 C   0  0  1  0  0  0  0  0  0  0  0  0
   11.0272   46.0323   33.4760 N   0  0  0  0  0  0  0  0  0  0  0  0
    9.7469   44.8484   31.6877 C   0  0  0  0  0  0  0  0  0  0  0  0
    8.7924   45.8410   31.0845 C   0  0  0  0  0  0  0  0  0  0  0  0
    7.4057   45.6011   31.0996 C   0  0  0  0  0  0  0  0  0  0  0  0
    9.2817   46.9875   30.4414 C   0  0  0  0  0  0  0  0  0  0  0  0
    6.5245   46.5011   30.4850 C   0  0  0  0  0  0  0  0  0  0  0  0
    8.4007   47.8876   29.8311 C   0  0  0  0  0  0  0  0  0  0  0  0
    7.0188   47.6575   29.8471 C   0  0  0  0  0  0  0  0  0  0  0  0
    6.1815   48.5963   29.2223 O   0  0  0  0  0  0  0  0  0  0  0  0
    4.7516   48.5647   29.2344 C   0  0  2  0  0  0  0  0  0  0  0  0
    4.2283   49.6183   28.2599 C   0  0  0  0  0  0  0  0  0  0  0  0
    4.2239   48.8420   30.6323 C   0  0  0  0  0  0  0  0  0  0  0  0
    4.8202   49.8834   31.3852 C   0  0  0  0  0  0  0  0  0  0  0  0
    3.1845   48.0525   31.2282 C   0  0  0  0  0  0  0  0  0  0  0  0
    4.4020   50.0790   32.6946 C   0  0  0  0  0  0  0  0  0  0  0  0
    2.8131   48.2871   32.5714 C   0  0  0  0  0  0  0  0  0  0  0  0
    2.4923   47.0317   30.4926 N   0  0  0  0  0  0  0  0  0  0  0  0
    4.8474   51.0152   33.6078 O   0  0  0  0  0  0  0  0  0  0  0  0
    3.4450   49.3112   33.2644 C   0  0  0  0  0  0  0  0  0  0  0  0
    2.0834   45.8856   31.1346 O   0  0  0  0  0  0  0  0  0  0  0  0
    2.0531   47.2701   29.3490 O   0  0  0  0  0  0  0  0  0  0  0  0
    4.1210   50.8219   34.8292 C   0  0  0  0  0  0  0  0  0  0  0  0
    3.2362   49.7242   34.5663 O   0  0  0  0  0  0  0  0  0  0  0  0
    8.8125   40.1848   34.2125 O   0  0  0  0  0  0  0  0  0  0  0  0
   11.2417   40.7948   33.3707 O   0  0  0  0  0  0  0  0  0  0  0  0
   10.9179   40.6921   31.9984 C   0  0  0  0  0  0  0  0  0  0  0  0
   11.5175   39.3837   31.4423 C   0  0  0  0  0  0  0  0  0  0  0  0
   12.7508   39.0887   32.0751 O   0  0  0  0  0  0  0  0  0  0  0  0
   10.6028   38.1916   31.6658 C   0  0  0  0  0  0  0  0  0  0  0  0
   12.9385   37.6818   32.0278 C   0  0  0  0  0  0  0  0  0  0  0  0
    9.6372   38.0805   30.6470 O   0  0  0  0  0  0  0  0  0  0  0  0
   11.5780   37.0215   31.6935 C   0  0  0  0  0  0  0  0  0  0  0  0
   13.4845   37.2120   33.3242 N   0  0  0  0  0  0  0  0  0  0  0  0
   11.6095   36.3201   30.4679 O   0  0  0  0  0  0  0  0  0  0  0  0
   14.4797   36.3318   33.5730 C   0  0  0  0  0  0  0  0  0  0  0  0
   13.1136   37.6277   34.5691 C   0  0  0  0  0  0  0  0  0  0  0  0
   15.2074   35.6155   32.6742 N   0  0  0  0  0  0  0  0  0  0  0  0
   14.6754   36.2304   34.9184 C   0  0  0  0  0  0  0  0  0  0  0  0
   13.8213   37.0451   35.5785 N   0  0  0  0  0  0  0  0  0  0  0  0
   16.1641   34.7604   33.1549 C   0  0  0  0  0  0  0  0  0  0  0  0
   15.6524   35.3507   35.4133 C   0  0  0  0  0  0  0  0  0  0  0  0
   16.3794   34.6318   34.5044 N   0  0  0  0  0  0  0  0  0  0  0  0
   15.9000   35.1934   36.8092 N   0  0  0  0  0  0  0  0  0  0  0  0
    9.0118   45.4318   33.6713 H   0  0  0  0  0  0  0  0  0  0  0  0
   11.8906   45.7661   32.9475 H   0  0  0  0  0  0  0  0  0  0  0  0
   10.7257   46.9688   33.1215 H   0  0  0  0  0  0  0  0  0  0  0  0
    9.3422   43.8331   31.4760 H   0  0  0  0  0  0  0  0  0  0  0  0
   10.7234   44.8824   31.1560 H   0  0  0  0  0  0  0  0  0  0  0  0
    7.0099   44.7157   31.5817 H   0  0  0  0  0  0  0  0  0  0  0  0
   10.3460   47.1856   30.4094 H   0  0  0  0  0  0  0  0  0  0  0  0
    5.4667   46.2836   30.5115 H   0  0  0  0  0  0  0  0  0  0  0  0
    8.7940   48.7699   29.3423 H   0  0  0  0  0  0  0  0  0  0  0  0
    4.4263   47.5728   28.8591 H   0  0  0  0  0  0  0  0  0  0  0  0
    4.5935   49.3949   27.2351 H   0  0  0  0  0  0  0  0  0  0  0  0
    3.1177   49.6150   28.2467 H   0  0  0  0  0  0  0  0  0  0  0  0
    4.5839   50.6302   28.5489 H   0  0  0  0  0  0  0  0  0  0  0  0
    5.6022   50.5064   30.9695 H   0  0  0  0  0  0  0  0  0  0  0  0
    2.0368   47.7053   33.0516 H   0  0  0  0  0  0  0  0  0  0  0  0
    3.5378   51.7333   35.0774 H   0  0  0  0  0  0  0  0  0  0  0  0
    4.8180   50.5633   35.6537 H   0  0  0  0  0  0  0  0  0  0  0  0
   11.3951   41.5477   31.4744 H   0  0  0  0  0  0  0  0  0  0  0  0
    9.8291   40.7409   31.7627 H   0  0  0  0  0  0  0  0  0  0  0  0
   11.6980   39.5114   30.3500 H   0  0  0  0  0  0  0  0  0  0  0  0
   10.1118   38.2603   32.6660 H   0  0  0  0  0  0  0  0  0  0  0  0
   13.6767   37.4554   31.2267 H   0  0  0  0  0  0  0  0  0  0  0  0
    8.8962   38.6951   30.8871 H   0  0  0  0  0  0  0  0  0  0  0  0
   11.2792   36.3071   32.4922 H   0  0  0  0  0  0  0  0  0  0  0  0
   11.8829   36.9597   29.7589 H   0  0  0  0  0  0  0  0  0  0  0  0
   12.3299   38.3537   34.7446 H   0  0  0  0  0  0  0  0  0  0  0  0
   16.7563   34.1785   32.4622 H   0  0  0  0  0  0  0  0  0  0  0  0
   16.6346   34.5302   37.1417 H   0  0  0  0  0  0  0  0  0  0  0  0
   15.3530   35.7360   37.5141 H   0  0  0  0  0  0  0  0  0  0  0  0
  1  2  2  0
  1  3  1  0
  3  4  1  0
  4  5  1  0
  6  1  1  0
  7  6  1  0
  6  8  1  0
  8  9  1  0
  9 10  2  0
 11  9  1  0
 10 12  1  0
 13 11  2  0
 12 14  2  0
 14 13  1  0
 14 15  1  0
 15 16  1  0
 16 17  1  0
 16 18  1  0
 18 19  2  0
 20 18  1  0
 19 21  1  0
 22 20  2  0
 20 23  1  0
 21 24  1  0
 21 25  2  0
 25 22  1  0
 23 26  1  0
 23 27  2  0
 24 28  1  0
 25 29  1  0
 28 29  1  0
  4 30  2  0
  4 31  1  0
 32 31  1  0
 32 33  1  0
 33 34  1  0
 33 35  1  0
 34 36  1  0
 35 37  1  0
 35 38  1  0
 38 36  1  0
 36 39  1  0
 38 40  1  0
 41 39  1  0
 42 39  1  0
 43 41  2  0
 41 44  1  0
 45 42  2  0
 46 43  1  0
 44 47  2  0
 44 45  1  0
 48 46  2  0
 48 47  1  0
 47 49  1  0
  6 50  1  1
  7 51  1  0
  7 52  1  0
  8 53  1  0
  8 54  1  0
 10 55  1  0
 11 56  1  0
 12 57  1  0
 13 58  1  0
 16 59  1  6
 17 60  1  0
 17 61  1  0
 17 62  1  0
 19 63  1  0
 22 64  1  0
 28 65  1  0
 28 66  1  0
 32 67  1  0
 32 68  1  0
 33 69  1  0
 35 70  1  0
 36 71  1  0
 37 72  1  0
 38 73  1  0
 40 74  1  0
 42 75  1  0
 46 76  1  0
 49 77  1  0
 49 78  1  0
M  CHG  3   5  -1  23   1  26  -1
M  END
>  <EmbedRMS>  (225) 
0.0819787351657

$$$$

     RDKit          3D

 78 83  0  0  0  0  0  0  0  0999 V2000
   10.2835   43.7662   33.8257 C   0  0  0  0  0  0  0  0  0  0  0  0
   11.4103   43.5929   34.3752 O   0  0  0  0  0  0  0  0  0  0  0  0
    9.3635   42.7257   33.7352 O   0  0  0  0  0  0  0  0  0  0  0  0
    9.8899   41.2270   34.2947 P   0  0  0  0  0  0  0  0  0  0  0  0
   10.3732   41.4562   35.8841 O   0  0  0  0  0  0  0  0  0  0  0  0
    9.9549   45.0696   33.2038 C   0  0  1  0  0  0  0  0  0  0  0  0
   11.0275   46.0322   33.4761 N   0  0  0  0  0  0  0  0  0  0  0  0
    9.7470   44.8486   31.6879 C   0  0  0  0  0  0  0  0  0  0  0  0
    8.7925   45.8417   31.0857 C   0  0  0  0  0  0  0  0  0  0  0  0
    7.4063   45.6008   31.0986 C   0  0  0  0  0  0  0  0  0  0  0  0
    9.2815   46.9874   30.4418 C   0  0  0  0  0  0  0  0  0  0  0  0
    6.5252   46.5002   30.4834 C   0  0  0  0  0  0  0  0  0  0  0  0
    8.4002   47.8863   29.8304 C   0  0  0  0  0  0  0  0  0  0  0  0
    7.0174   47.6592   29.8482 C   0  0  0  0  0  0  0  0  0  0  0  0
    6.1870   48.6006   29.2084 O   0  0  0  0  0  0  0  0  0  0  0  0
    4.7620   48.7427   29.3351 C   0  0  2  0  0  0  0  0  0  0  0  0
    4.3594   48.8454   30.8207 C   0  0  0  0  0  0  0  0  0  0  0  0
    3.9760   47.6802   28.5615 C   0  0  0  0  0  0  0  0  0  0  0  0
    4.6635   46.6844   27.8166 C   0  0  0  0  0  0  0  0  0  0  0  0
    2.5375   47.6692   28.5550 C   0  0  0  0  0  0  0  0  0  0  0  0
    3.9266   45.6870   27.1926 C   0  0  0  0  0  0  0  0  0  0  0  0
    1.8432   46.6169   27.9174 C   0  0  0  0  0  0  0  0  0  0  0  0
    1.7689   48.7250   29.1493 N   0  0  0  0  0  0  0  0  0  0  0  0
    4.3876   44.6189   26.4470 O   0  0  0  0  0  0  0  0  0  0  0  0
    2.5772   45.6484   27.2498 C   0  0  0  0  0  0  0  0  0  0  0  0
    0.5967   48.4294   29.8061 O   0  0  0  0  0  0  0  0  0  0  0  0
    2.0154   49.9146   28.8634 O   0  0  0  0  0  0  0  0  0  0  0  0
    3.2514   43.8599   26.0119 C   0  0  0  0  0  0  0  0  0  0  0  0
    2.1152   44.5532   26.5456 O   0  0  0  0  0  0  0  0  0  0  0  0
    8.8120   40.1851   34.2132 O   0  0  0  0  0  0  0  0  0  0  0  0
   11.2403   40.7947   33.3700 O   0  0  0  0  0  0  0  0  0  0  0  0
   10.9144   40.6914   31.9982 C   0  0  0  0  0  0  0  0  0  0  0  0
   11.5270   39.3912   31.4385 C   0  0  0  0  0  0  0  0  0  0  0  0
   12.7520   39.0911   32.0836 O   0  0  0  0  0  0  0  0  0  0  0  0
   10.6113   38.1932   31.6451 C   0  0  0  0  0  0  0  0  0  0  0  0
   12.9413   37.6838   32.0297 C   0  0  0  0  0  0  0  0  0  0  0  0
    9.6064   38.0878   30.6599 O   0  0  0  0  0  0  0  0  0  0  0  0
   11.5822   37.0198   31.6877 C   0  0  0  0  0  0  0  0  0  0  0  0
   13.4840   37.2105   33.3254 N   0  0  0  0  0  0  0  0  0  0  0  0
   11.6179   36.3072   30.4690 O   0  0  0  0  0  0  0  0  0  0  0  0
   14.4797   36.3309   33.5738 C   0  0  0  0  0  0  0  0  0  0  0  0
   13.1137   37.6269   34.5702 C   0  0  0  0  0  0  0  0  0  0  0  0
   15.2074   35.6152   32.6747 N   0  0  0  0  0  0  0  0  0  0  0  0
   14.6756   36.2298   34.9190 C   0  0  0  0  0  0  0  0  0  0  0  0
   13.8217   37.0446   35.5793 N   0  0  0  0  0  0  0  0  0  0  0  0
   16.1643   34.7602   33.1551 C   0  0  0  0  0  0  0  0  0  0  0  0
   15.6528   35.3503   35.4136 C   0  0  0  0  0  0  0  0  0  0  0  0
   16.3798   34.6315   34.5046 N   0  0  0  0  0  0  0  0  0  0  0  0
   15.9004   35.1931   36.8094 N   0  0  0  0  0  0  0  0  0  0  0  0
    9.0122   45.4318   33.6717 H   0  0  0  0  0  0  0  0  0  0  0  0
   11.8909   45.7658   32.9477 H   0  0  0  0  0  0  0  0  0  0  0  0
   10.7263   46.9688   33.1216 H   0  0  0  0  0  0  0  0  0  0  0  0
   10.7234   44.8827   31.1559 H   0  0  0  0  0  0  0  0  0  0  0  0
    9.3423   43.8334   31.4760 H   0  0  0  0  0  0  0  0  0  0  0  0
    7.0113   44.7108   31.5729 H   0  0  0  0  0  0  0  0  0  0  0  0
   10.3459   47.1853   30.4087 H   0  0  0  0  0  0  0  0  0  0  0  0
    5.4732   46.2624   30.4830 H   0  0  0  0  0  0  0  0  0  0  0  0
    8.7945   48.7665   29.3386 H   0  0  0  0  0  0  0  0  0  0  0  0
    4.5219   49.7195   28.8660 H   0  0  0  0  0  0  0  0  0  0  0  0
    3.4895   49.5201   30.9497 H   0  0  0  0  0  0  0  0  0  0  0  0
    5.1919   49.2767   31.4163 H   0  0  0  0  0  0  0  0  0  0  0  0
    4.0891   47.8574   31.2451 H   0  0  0  0  0  0  0  0  0  0  0  0
    5.7389   46.6697   27.7194 H   0  0  0  0  0  0  0  0  0  0  0  0
    0.7615   46.5785   27.9100 H   0  0  0  0  0  0  0  0  0  0  0  0
    3.2983   42.8290   26.4213 H   0  0  0  0  0  0  0  0  0  0  0  0
    3.2033   43.8421   24.9029 H   0  0  0  0  0  0  0  0  0  0  0  0
    9.8234   40.7201   31.7654 H   0  0  0  0  0  0  0  0  0  0  0  0
   11.3776   41.5549   31.4744 H   0  0  0  0  0  0  0  0  0  0  0  0
   11.7312   39.5363   30.3532 H   0  0  0  0  0  0  0  0  0  0  0  0
   10.1202   38.2696   32.6410 H   0  0  0  0  0  0  0  0  0  0  0  0
   13.6850   37.4639   31.2321 H   0  0  0  0  0  0  0  0  0  0  0  0
   10.0251   38.1793   29.7654 H   0  0  0  0  0  0  0  0  0  0  0  0
   11.2757   36.3135   32.4907 H   0  0  0  0  0  0  0  0  0  0  0  0
   11.9838   36.9111   29.7708 H   0  0  0  0  0  0  0  0  0  0  0  0
   12.3308   38.3537   34.7457 H   0  0  0  0  0  0  0  0  0  0  0  0
   16.7565   34.1786   32.4623 H   0  0  0  0  0  0  0  0  0  0  0  0
   16.6353   34.5301   37.1419 H   0  0  0  0  0  0  0  0  0  0  0  0
   15.3535   35.7355   37.5144 H   0  0  0  0  0  0  0  0  0  0  0  0
  1  2  2  0
  1  3  1  0
  3  4  1  0
  4  5  1  0
  6  1  1  0
  7  6  1  0
  6  8  1  0
  8  9  1  0
  9 10  2  0
 11  9  1  0
 10 12  1  0
 13 11  2  0
 12 14  2  0
 14 13  1  0
 14 15  1  0
 15 16  1  0
 16 17  1  0
 16 18  1  0
 18 19  2  0
 20 18  1  0
 19 21  1  0
 22 20  2  0
 20 23  1  0
 21 24  1  0
 21 25  2  0
 25 22  1  0
 23 26  1  0
 23 27  2  0
 24 28  1  0
 25 29  1  0
 28 29  1  0
  4 30  2  0
  4 31  1  0
 32 31  1  0
 32 33  1  0
 33 34  1  0
 33 35  1  0
 34 36  1  0
 35 37  1  0
 35 38  1  0
 38 36  1  0
 36 39  1  0
 38 40  1  0
 41 39  1  0
 42 39  1  0
 43 41  2  0
 41 44  1  0
 45 42  2  0
 46 43  1  0
 44 47  2  0
 44 45  1  0
 48 46  2  0
 48 47  1  0
 47 49  1  0
  6 50  1  1
  7 51  1  0
  7 52  1  0
  8 53  1  0
  8 54  1  0
 10 55  1  0
 11 56  1  0
 12 57  1  0
 13 58  1  0
 16 59  1  6
 17 60  1  0
 17 61  1  0
 17 62  1  0
 19 63  1  0
 22 64  1  0
 28 65  1  0
 28 66  1  0
 32 67  1  0
 32 68  1  0
 33 69  1  0
 35 70  1  0
 36 71  1  0
 37 72  1  0
 38 73  1  0
 40 74  1  0
 42 75  1  0
 46 76  1  0
 49 77  1  0
 49 78  1  0
M  CHG  3   5  -1  23   1  26  -1
M  END
>  <EmbedRMS>  (226) 
0.0807950150384

$$$$

     RDKit          3D

 78 83  0  0  0  0  0  0  0  0999 V2000
   10.2830   43.7667   33.8257 C   0  0  0  0  0  0  0  0  0  0  0  0
   11.4099   43.5935   34.3750 O   0  0  0  0  0  0  0  0  0  0  0  0
    9.3633   42.7259   33.7352 O   0  0  0  0  0  0  0  0  0  0  0  0
    9.8902   41.2271   34.2941 P   0  0  0  0  0  0  0  0  0  0  0  0
   10.3739   41.4561   35.8834 O   0  0  0  0  0  0  0  0  0  0  0  0
    9.9538   45.0700   33.2035 C   0  0  1  0  0  0  0  0  0  0  0  0
   11.0261   46.0331   33.4760 N   0  0  0  0  0  0  0  0  0  0  0  0
    9.7466   44.8486   31.6876 C   0  0  0  0  0  0  0  0  0  0  0  0
    8.7922   45.8409   31.0839 C   0  0  0  0  0  0  0  0  0  0  0  0
    7.4045   45.5995   31.0974 C   0  0  0  0  0  0  0  0  0  0  0  0
    9.2828   46.9878   30.4391 C   0  0  0  0  0  0  0  0  0  0  0  0
    6.5253   46.5007   30.4819 C   0  0  0  0  0  0  0  0  0  0  0  0
    8.4017   47.8884   29.8284 C   0  0  0  0  0  0  0  0  0  0  0  0
    7.0206   47.6551   29.8583 C   0  0  0  0  0  0  0  0  0  0  0  0
    6.1430   48.5524   29.2453 O   0  0  0  0  0  0  0  0  0  0  0  0
    5.4935   49.6285   29.9302 C   0  0  2  0  0  0  0  0  0  0  0  0
    6.4636   50.7822   30.2058 C   0  0  0  0  0  0  0  0  0  0  0  0
    4.6984   49.1341   31.1384 C   0  0  0  0  0  0  0  0  0  0  0  0
    3.3462   48.7730   30.9126 C   0  0  0  0  0  0  0  0  0  0  0  0
    5.2575   48.9240   32.4466 C   0  0  0  0  0  0  0  0  0  0  0  0
    2.6104   48.2386   31.9622 C   0  0  0  0  0  0  0  0  0  0  0  0
    4.4628   48.3734   33.4744 C   0  0  0  0  0  0  0  0  0  0  0  0
    6.6064   49.2718   32.7620 N   0  0  0  0  0  0  0  0  0  0  0  0
    1.2932   47.8215   31.9628 O   0  0  0  0  0  0  0  0  0  0  0  0
    3.1454   48.0462   33.1887 C   0  0  0  0  0  0  0  0  0  0  0  0
    6.8654   50.5320   33.2478 O   0  0  0  0  0  0  0  0  0  0  0  0
    7.4338   48.3639   32.9801 O   0  0  0  0  0  0  0  0  0  0  0  0
    0.9829   47.3382   33.2769 C   0  0  0  0  0  0  0  0  0  0  0  0
    2.1938   47.5000   34.0281 O   0  0  0  0  0  0  0  0  0  0  0  0
    8.8121   40.1853   34.2131 O   0  0  0  0  0  0  0  0  0  0  0  0
   11.2402   40.7953   33.3681 O   0  0  0  0  0  0  0  0  0  0  0  0
   10.9125   40.6877   31.9968 C   0  0  0  0  0  0  0  0  0  0  0  0
   11.5169   39.3811   31.4421 C   0  0  0  0  0  0  0  0  0  0  0  0
   12.7500   39.0881   32.0759 O   0  0  0  0  0  0  0  0  0  0  0  0
   10.6043   38.1893   31.6659 C   0  0  0  0  0  0  0  0  0  0  0  0
   12.9395   37.6814   32.0280 C   0  0  0  0  0  0  0  0  0  0  0  0
    9.6353   38.0951   30.6499 O   0  0  0  0  0  0  0  0  0  0  0  0
   11.5804   37.0191   31.6934 C   0  0  0  0  0  0  0  0  0  0  0  0
   13.4851   37.2119   33.3244 N   0  0  0  0  0  0  0  0  0  0  0  0
   11.6118   36.3189   30.4674 O   0  0  0  0  0  0  0  0  0  0  0  0
   14.4801   36.3316   33.5732 C   0  0  0  0  0  0  0  0  0  0  0  0
   13.1139   37.6277   34.5692 C   0  0  0  0  0  0  0  0  0  0  0  0
   15.2076   35.6154   32.6744 N   0  0  0  0  0  0  0  0  0  0  0  0
   14.6756   36.2303   34.9186 C   0  0  0  0  0  0  0  0  0  0  0  0
   13.8215   37.0451   35.5786 N   0  0  0  0  0  0  0  0  0  0  0  0
   16.1642   34.7602   33.1551 C   0  0  0  0  0  0  0  0  0  0  0  0
   15.6526   35.3505   35.4134 C   0  0  0  0  0  0  0  0  0  0  0  0
   16.3796   34.6316   34.5045 N   0  0  0  0  0  0  0  0  0  0  0  0
   15.9001   35.1933   36.8093 N   0  0  0  0  0  0  0  0  0  0  0  0
    9.0108   45.4322   33.6708 H   0  0  0  0  0  0  0  0  0  0  0  0
   10.7236   46.9697   33.1226 H   0  0  0  0  0  0  0  0  0  0  0  0
   11.8893   45.7678   32.9468 H   0  0  0  0  0  0  0  0  0  0  0  0
   10.7231   44.8824   31.1560 H   0  0  0  0  0  0  0  0  0  0  0  0
    9.3419   43.8333   31.4760 H   0  0  0  0  0  0  0  0  0  0  0  0
    7.0076   44.7139   31.5782 H   0  0  0  0  0  0  0  0  0  0  0  0
   10.3472   47.1842   30.4047 H   0  0  0  0  0  0  0  0  0  0  0  0
    5.4606   46.3054   30.4953 H   0  0  0  0  0  0  0  0  0  0  0  0
    8.7921   48.7672   29.3316 H   0  0  0  0  0  0  0  0  0  0  0  0
    4.7624   50.0531   29.2069 H   0  0  0  0  0  0  0  0  0  0  0  0
    6.7480   51.2624   29.2452 H   0  0  0  0  0  0  0  0  0  0  0  0
    5.9803   51.5498   30.8466 H   0  0  0  0  0  0  0  0  0  0  0  0
    7.3995   50.4274   30.6789 H   0  0  0  0  0  0  0  0  0  0  0  0
    2.8830   48.8882   29.9406 H   0  0  0  0  0  0  0  0  0  0  0  0
    4.8647   48.2102   34.4663 H   0  0  0  0  0  0  0  0  0  0  0  0
    0.6986   46.2659   33.2346 H   0  0  0  0  0  0  0  0  0  0  0  0
    0.1690   47.9446   33.7268 H   0  0  0  0  0  0  0  0  0  0  0  0
    9.8215   40.7222   31.7646 H   0  0  0  0  0  0  0  0  0  0  0  0
   11.3807   41.5457   31.4685 H   0  0  0  0  0  0  0  0  0  0  0  0
   11.6986   39.5089   30.3499 H   0  0  0  0  0  0  0  0  0  0  0  0
   10.1109   38.2737   32.6630 H   0  0  0  0  0  0  0  0  0  0  0  0
   13.6783   37.4562   31.2271 H   0  0  0  0  0  0  0  0  0  0  0  0
    9.0020   37.3860   30.9348 H   0  0  0  0  0  0  0  0  0  0  0  0
   11.2807   36.3053   32.4921 H   0  0  0  0  0  0  0  0  0  0  0  0
   11.8818   36.9600   29.7584 H   0  0  0  0  0  0  0  0  0  0  0  0
   12.3303   38.3538   34.7446 H   0  0  0  0  0  0  0  0  0  0  0  0
   16.7563   34.1783   32.4623 H   0  0  0  0  0  0  0  0  0  0  0  0
   15.3532   35.7359   37.5142 H   0  0  0  0  0  0  0  0  0  0  0  0
   16.6348   34.5301   37.1418 H   0  0  0  0  0  0  0  0  0  0  0  0
  1  2  2  0
  1  3  1  0
  3  4  1  0
  4  5  1  0
  6  1  1  0
  7  6  1  0
  6  8  1  0
  8  9  1  0
  9 10  2  0
 11  9  1  0
 10 12  1  0
 13 11  2  0
 12 14  2  0
 14 13  1  0
 14 15  1  0
 15 16  1  0
 16 17  1  0
 16 18  1  0
 18 19  2  0
 20 18  1  0
 19 21  1  0
 22 20  2  0
 20 23  1  0
 21 24  1  0
 21 25  2  0
 25 22  1  0
 23 26  1  0
 23 27  2  0
 24 28  1  0
 25 29  1  0
 28 29  1  0
  4 30  2  0
  4 31  1  0
 32 31  1  0
 32 33  1  0
 33 34  1  0
 33 35  1  0
 34 36  1  0
 35 37  1  0
 35 38  1  0
 38 36  1  0
 36 39  1  0
 38 40  1  0
 41 39  1  0
 42 39  1  0
 43 41  2  0
 41 44  1  0
 45 42  2  0
 46 43  1  0
 44 47  2  0
 44 45  1  0
 48 46  2  0
 48 47  1  0
 47 49  1  0
  6 50  1  1
  7 51  1  0
  7 52  1  0
  8 53  1  0
  8 54  1  0
 10 55  1  0
 11 56  1  0
 12 57  1  0
 13 58  1  0
 16 59  1  6
 17 60  1  0
 17 61  1  0
 17 62  1  0
 19 63  1  0
 22 64  1  0
 28 65  1  0
 28 66  1  0
 32 67  1  0
 32 68  1  0
 33 69  1  0
 35 70  1  0
 36 71  1  0
 37 72  1  0
 38 73  1  0
 40 74  1  0
 42 75  1  0
 46 76  1  0
 49 77  1  0
 49 78  1  0
M  CHG  3   5  -1  23   1  26  -1
M  END
>  <EmbedRMS>  (227) 
0.0817032741326

$$$$

     RDKit          3D

 78 83  0  0  0  0  0  0  0  0999 V2000
   10.2839   43.7626   33.8277 C   0  0  0  0  0  0  0  0  0  0  0  0
   11.4104   43.5862   34.3767 O   0  0  0  0  0  0  0  0  0  0  0  0
    9.3630   42.7236   33.7355 O   0  0  0  0  0  0  0  0  0  0  0  0
    9.8894   41.2249   34.2944 P   0  0  0  0  0  0  0  0  0  0  0  0
   10.3727   41.4546   35.8838 O   0  0  0  0  0  0  0  0  0  0  0  0
    9.9548   45.0699   33.2066 C   0  0  1  0  0  0  0  0  0  0  0  0
   11.0199   46.0480   33.4569 N   0  0  0  0  0  0  0  0  0  0  0  0
    9.7500   44.8509   31.6926 C   0  0  0  0  0  0  0  0  0  0  0  0
    8.7941   45.8420   31.0875 C   0  0  0  0  0  0  0  0  0  0  0  0
    7.4077   45.6008   31.0997 C   0  0  0  0  0  0  0  0  0  0  0  0
    9.2830   46.9886   30.4445 C   0  0  0  0  0  0  0  0  0  0  0  0
    6.5286   46.5012   30.4831 C   0  0  0  0  0  0  0  0  0  0  0  0
    8.4038   47.8895   29.8313 C   0  0  0  0  0  0  0  0  0  0  0  0
    7.0137   47.6536   29.8492 C   0  0  0  0  0  0  0  0  0  0  0  0
    6.0820   48.5173   29.2495 O   0  0  0  0  0  0  0  0  0  0  0  0
    6.3597   49.8051   28.6976 C   0  0  2  0  0  0  0  0  0  0  0  0
    6.6617   50.8280   29.8015 C   0  0  0  0  0  0  0  0  0  0  0  0
    5.1901   50.2536   27.8353 C   0  0  0  0  0  0  0  0  0  0  0  0
    5.4359   50.5037   26.4616 C   0  0  0  0  0  0  0  0  0  0  0  0
    3.8682   50.4742   28.3564 C   0  0  0  0  0  0  0  0  0  0  0  0
    4.3940   50.9697   25.6709 C   0  0  0  0  0  0  0  0  0  0  0  0
    2.8520   50.9636   27.5048 C   0  0  0  0  0  0  0  0  0  0  0  0
    3.5411   50.2257   29.7305 N   0  0  0  0  0  0  0  0  0  0  0  0
    4.4104   51.2805   24.3247 O   0  0  0  0  0  0  0  0  0  0  0  0
    3.1578   51.1927   26.1708 C   0  0  0  0  0  0  0  0  0  0  0  0
    3.6837   48.9634   30.2557 O   0  0  0  0  0  0  0  0  0  0  0  0
    2.8859   51.0728   30.3718 O   0  0  0  0  0  0  0  0  0  0  0  0
    3.0977   51.7267   23.9577 C   0  0  0  0  0  0  0  0  0  0  0  0
    2.3293   51.6551   25.1664 O   0  0  0  0  0  0  0  0  0  0  0  0
    8.8113   40.1833   34.2130 O   0  0  0  0  0  0  0  0  0  0  0  0
   11.2399   40.7932   33.3693 O   0  0  0  0  0  0  0  0  0  0  0  0
   10.9143   40.6896   31.9973 C   0  0  0  0  0  0  0  0  0  0  0  0
   11.5261   39.3884   31.4375 C   0  0  0  0  0  0  0  0  0  0  0  0
   12.7505   39.0887   32.0815 O   0  0  0  0  0  0  0  0  0  0  0  0
   10.6115   38.1909   31.6460 C   0  0  0  0  0  0  0  0  0  0  0  0
   12.9357   37.6812   32.0303 C   0  0  0  0  0  0  0  0  0  0  0  0
    9.6146   38.0858   30.6533 O   0  0  0  0  0  0  0  0  0  0  0  0
   11.5769   37.0148   31.7012 C   0  0  0  0  0  0  0  0  0  0  0  0
   13.4849   37.2112   33.3247 N   0  0  0  0  0  0  0  0  0  0  0  0
   11.6193   36.3260   30.4724 O   0  0  0  0  0  0  0  0  0  0  0  0
   14.4802   36.3313   33.5730 C   0  0  0  0  0  0  0  0  0  0  0  0
   13.1141   37.6268   34.5697 C   0  0  0  0  0  0  0  0  0  0  0  0
   15.2075   35.6151   32.6741 N   0  0  0  0  0  0  0  0  0  0  0  0
   14.6761   36.2300   34.9184 C   0  0  0  0  0  0  0  0  0  0  0  0
   13.8220   37.0445   35.5789 N   0  0  0  0  0  0  0  0  0  0  0  0
   16.1642   34.7600   33.1547 C   0  0  0  0  0  0  0  0  0  0  0  0
   15.6529   35.3503   35.4132 C   0  0  0  0  0  0  0  0  0  0  0  0
   16.3798   34.6314   34.5042 N   0  0  0  0  0  0  0  0  0  0  0  0
   15.9004   35.1930   36.8091 N   0  0  0  0  0  0  0  0  0  0  0  0
    9.0100   45.4349   33.6674 H   0  0  0  0  0  0  0  0  0  0  0  0
   11.1136   46.1992   34.4882 H   0  0  0  0  0  0  0  0  0  0  0  0
   11.9349   45.6932   33.0924 H   0  0  0  0  0  0  0  0  0  0  0  0
    9.3507   43.8344   31.4765 H   0  0  0  0  0  0  0  0  0  0  0  0
   10.7303   44.8922   31.1677 H   0  0  0  0  0  0  0  0  0  0  0  0
    7.0111   44.7153   31.5810 H   0  0  0  0  0  0  0  0  0  0  0  0
   10.3476   47.1858   30.4135 H   0  0  0  0  0  0  0  0  0  0  0  0
    5.4643   46.3032   30.5001 H   0  0  0  0  0  0  0  0  0  0  0  0
    8.8226   48.7556   29.3409 H   0  0  0  0  0  0  0  0  0  0  0  0
    7.2631   49.7286   28.0546 H   0  0  0  0  0  0  0  0  0  0  0  0
    6.7433   51.8474   29.3673 H   0  0  0  0  0  0  0  0  0  0  0  0
    5.8737   50.8274   30.5806 H   0  0  0  0  0  0  0  0  0  0  0  0
    7.6249   50.5898   30.2966 H   0  0  0  0  0  0  0  0  0  0  0  0
    6.4132   50.3526   26.0209 H   0  0  0  0  0  0  0  0  0  0  0  0
    1.8498   51.1443   27.8720 H   0  0  0  0  0  0  0  0  0  0  0  0
    3.1367   52.7734   23.5899 H   0  0  0  0  0  0  0  0  0  0  0  0
    2.6647   51.0541   23.1879 H   0  0  0  0  0  0  0  0  0  0  0  0
   11.3783   41.5525   31.4733 H   0  0  0  0  0  0  0  0  0  0  0  0
    9.8234   40.7192   31.7644 H   0  0  0  0  0  0  0  0  0  0  0  0
   11.7282   39.5312   30.3515 H   0  0  0  0  0  0  0  0  0  0  0  0
   10.1127   38.2733   32.6376 H   0  0  0  0  0  0  0  0  0  0  0  0
   13.6693   37.4565   31.2242 H   0  0  0  0  0  0  0  0  0  0  0  0
   10.0533   38.1117   29.7635 H   0  0  0  0  0  0  0  0  0  0  0  0
   11.2607   36.3147   32.5101 H   0  0  0  0  0  0  0  0  0  0  0  0
   12.1496   35.5022   30.6324 H   0  0  0  0  0  0  0  0  0  0  0  0
   12.3301   38.3524   34.7455 H   0  0  0  0  0  0  0  0  0  0  0  0
   16.7563   34.1781   32.4619 H   0  0  0  0  0  0  0  0  0  0  0  0
   16.6350   34.5299   37.1416 H   0  0  0  0  0  0  0  0  0  0  0  0
   15.3535   35.7357   37.5139 H   0  0  0  0  0  0  0  0  0  0  0  0
  1  2  2  0
  1  3  1  0
  3  4  1  0
  4  5  1  0
  6  1  1  0
  7  6  1  0
  6  8  1  0
  8  9  1  0
  9 10  2  0
 11  9  1  0
 10 12  1  0
 13 11  2  0
 12 14  2  0
 14 13  1  0
 14 15  1  0
 15 16  1  0
 16 17  1  0
 16 18  1  0
 18 19  2  0
 20 18  1  0
 19 21  1  0
 22 20  2  0
 20 23  1  0
 21 24  1  0
 21 25  2  0
 25 22  1  0
 23 26  1  0
 23 27  2  0
 24 28  1  0
 25 29  1  0
 28 29  1  0
  4 30  2  0
  4 31  1  0
 32 31  1  0
 32 33  1  0
 33 34  1  0
 33 35  1  0
 34 36  1  0
 35 37  1  0
 35 38  1  0
 38 36  1  0
 36 39  1  0
 38 40  1  0
 41 39  1  0
 42 39  1  0
 43 41  2  0
 41 44  1  0
 45 42  2  0
 46 43  1  0
 44 47  2  0
 44 45  1  0
 48 46  2  0
 48 47  1  0
 47 49  1  0
  6 50  1  1
  7 51  1  0
  7 52  1  0
  8 53  1  0
  8 54  1  0
 10 55  1  0
 11 56  1  0
 12 57  1  0
 13 58  1  0
 16 59  1  6
 17 60  1  0
 17 61  1  0
 17 62  1  0
 19 63  1  0
 22 64  1  0
 28 65  1  0
 28 66  1  0
 32 67  1  0
 32 68  1  0
 33 69  1  0
 35 70  1  0
 36 71  1  0
 37 72  1  0
 38 73  1  0
 40 74  1  0
 42 75  1  0
 46 76  1  0
 49 77  1  0
 49 78  1  0
M  CHG  3   5  -1  23   1  26  -1
M  END
>  <EmbedRMS>  (228) 
0.0825097602348

$$$$

     RDKit          3D

 78 83  0  0  0  0  0  0  0  0999 V2000
   10.2805   43.7663   33.8250 C   0  0  0  0  0  0  0  0  0  0  0  0
   11.4112   43.5918   34.3668 O   0  0  0  0  0  0  0  0  0  0  0  0
    9.3622   42.7247   33.7343 O   0  0  0  0  0  0  0  0  0  0  0  0
    9.8904   41.2264   34.2937 P   0  0  0  0  0  0  0  0  0  0  0  0
   10.3732   41.4564   35.8832 O   0  0  0  0  0  0  0  0  0  0  0  0
    9.9459   45.0735   33.2113 C   0  0  1  0  0  0  0  0  0  0  0  0
   11.0267   46.0291   33.4707 N   0  0  0  0  0  0  0  0  0  0  0  0
    9.7535   44.8538   31.6951 C   0  0  0  0  0  0  0  0  0  0  0  0
    8.7955   45.8412   31.0851 C   0  0  0  0  0  0  0  0  0  0  0  0
    7.4089   45.6004   31.1006 C   0  0  0  0  0  0  0  0  0  0  0  0
    9.2828   46.9875   30.4398 C   0  0  0  0  0  0  0  0  0  0  0  0
    6.5286   46.5005   30.4848 C   0  0  0  0  0  0  0  0  0  0  0  0
    8.4026   47.8889   29.8295 C   0  0  0  0  0  0  0  0  0  0  0  0
    7.0127   47.6523   29.8488 C   0  0  0  0  0  0  0  0  0  0  0  0
    6.0804   48.5158   29.2493 O   0  0  0  0  0  0  0  0  0  0  0  0
    6.3696   49.7805   28.6430 C   0  0  2  0  0  0  0  0  0  0  0  0
    6.6477   50.8268   29.7281 C   0  0  0  0  0  0  0  0  0  0  0  0
    5.2010   50.2364   27.7806 C   0  0  0  0  0  0  0  0  0  0  0  0
    3.9087   49.6967   28.0138 C   0  0  0  0  0  0  0  0  0  0  0  0
    5.3520   51.2756   26.7993 C   0  0  0  0  0  0  0  0  0  0  0  0
    2.8386   50.1876   27.2775 C   0  0  0  0  0  0  0  0  0  0  0  0
    4.2221   51.7446   26.0932 C   0  0  0  0  0  0  0  0  0  0  0  0
    6.6247   51.8799   26.5241 N   0  0  0  0  0  0  0  0  0  0  0  0
    1.5104   49.8114   27.3386 O   0  0  0  0  0  0  0  0  0  0  0  0
    2.9882   51.1685   26.3592 C   0  0  0  0  0  0  0  0  0  0  0  0
    6.7024   53.2407   26.3378 O   0  0  0  0  0  0  0  0  0  0  0  0
    7.5981   51.1724   26.1949 O   0  0  0  0  0  0  0  0  0  0  0  0
    0.7813   50.6071   26.3941 C   0  0  0  0  0  0  0  0  0  0  0  0
    1.7632   51.4607   25.7910 O   0  0  0  0  0  0  0  0  0  0  0  0
    8.8129   40.1841   34.2124 O   0  0  0  0  0  0  0  0  0  0  0  0
   11.2419   40.7944   33.3695 O   0  0  0  0  0  0  0  0  0  0  0  0
   10.9185   40.6911   31.9970 C   0  0  0  0  0  0  0  0  0  0  0  0
   11.5172   39.3814   31.4407 C   0  0  0  0  0  0  0  0  0  0  0  0
   12.7492   39.0856   32.0729 O   0  0  0  0  0  0  0  0  0  0  0  0
   10.6023   38.1908   31.6665 C   0  0  0  0  0  0  0  0  0  0  0  0
   12.9319   37.6781   32.0281 C   0  0  0  0  0  0  0  0  0  0  0  0
    9.6392   38.0797   30.6452 O   0  0  0  0  0  0  0  0  0  0  0  0
   11.5715   37.0165   31.7056 C   0  0  0  0  0  0  0  0  0  0  0  0
   13.4846   37.2121   33.3235 N   0  0  0  0  0  0  0  0  0  0  0  0
   11.6187   36.3384   30.4695 O   0  0  0  0  0  0  0  0  0  0  0  0
   14.4801   36.3321   33.5724 C   0  0  0  0  0  0  0  0  0  0  0  0
   13.1137   37.6276   34.5688 C   0  0  0  0  0  0  0  0  0  0  0  0
   15.2073   35.6153   32.6738 N   0  0  0  0  0  0  0  0  0  0  0  0
   14.6759   36.2308   34.9179 C   0  0  0  0  0  0  0  0  0  0  0  0
   13.8216   37.0452   35.5781 N   0  0  0  0  0  0  0  0  0  0  0  0
   16.1640   34.7602   33.1546 C   0  0  0  0  0  0  0  0  0  0  0  0
   15.6526   35.3508   35.4129 C   0  0  0  0  0  0  0  0  0  0  0  0
   16.3794   34.6317   34.5041 N   0  0  0  0  0  0  0  0  0  0  0  0
   15.8999   35.1935   36.8088 N   0  0  0  0  0  0  0  0  0  0  0  0
    8.9996   45.4380   33.6725 H   0  0  0  0  0  0  0  0  0  0  0  0
   11.0505   46.2277   34.4981 H   0  0  0  0  0  0  0  0  0  0  0  0
   10.7763   46.9368   33.0158 H   0  0  0  0  0  0  0  0  0  0  0  0
   10.7406   44.9070   31.1836 H   0  0  0  0  0  0  0  0  0  0  0  0
    9.3635   43.8352   31.4716 H   0  0  0  0  0  0  0  0  0  0  0  0
    7.0133   44.7158   31.5843 H   0  0  0  0  0  0  0  0  0  0  0  0
   10.3471   47.1851   30.4056 H   0  0  0  0  0  0  0  0  0  0  0  0
    5.4644   46.3025   30.5036 H   0  0  0  0  0  0  0  0  0  0  0  0
    8.8196   48.7585   29.3430 H   0  0  0  0  0  0  0  0  0  0  0  0
    7.2585   49.6541   27.9975 H   0  0  0  0  0  0  0  0  0  0  0  0
    6.9084   51.8041   29.2705 H   0  0  0  0  0  0  0  0  0  0  0  0
    5.7518   50.9576   30.3720 H   0  0  0  0  0  0  0  0  0  0  0  0
    7.4960   50.5116   30.3690 H   0  0  0  0  0  0  0  0  0  0  0  0
    3.7290   48.9332   28.7591 H   0  0  0  0  0  0  0  0  0  0  0  0
    4.3078   52.5280   25.3511 H   0  0  0  0  0  0  0  0  0  0  0  0
    0.3137   49.9576   25.6247 H   0  0  0  0  0  0  0  0  0  0  0  0
    0.0134   51.2155   26.9163 H   0  0  0  0  0  0  0  0  0  0  0  0
    9.8298   40.7409   31.7611 H   0  0  0  0  0  0  0  0  0  0  0  0
   11.3967   41.5459   31.4726 H   0  0  0  0  0  0  0  0  0  0  0  0
   11.6975   39.5066   30.3481 H   0  0  0  0  0  0  0  0  0  0  0  0
   10.1076   38.2647   32.6645 H   0  0  0  0  0  0  0  0  0  0  0  0
   13.6621   37.4468   31.2209 H   0  0  0  0  0  0  0  0  0  0  0  0
    8.8974   38.6942   30.8832 H   0  0  0  0  0  0  0  0  0  0  0  0
   11.2806   36.3073   32.5170 H   0  0  0  0  0  0  0  0  0  0  0  0
   10.8492   35.7110   30.4586 H   0  0  0  0  0  0  0  0  0  0  0  0
   12.3291   38.3524   34.7444 H   0  0  0  0  0  0  0  0  0  0  0  0
   16.7559   34.1780   32.4619 H   0  0  0  0  0  0  0  0  0  0  0  0
   15.3531   35.7362   37.5137 H   0  0  0  0  0  0  0  0  0  0  0  0
   16.6344   34.5301   37.1414 H   0  0  0  0  0  0  0  0  0  0  0  0
  1  2  2  0
  1  3  1  0
  3  4  1  0
  4  5  1  0
  6  1  1  0
  7  6  1  0
  6  8  1  0
  8  9  1  0
  9 10  2  0
 11  9  1  0
 10 12  1  0
 13 11  2  0
 12 14  2  0
 14 13  1  0
 14 15  1  0
 15 16  1  0
 16 17  1  0
 16 18  1  0
 18 19  2  0
 20 18  1  0
 19 21  1  0
 22 20  2  0
 20 23  1  0
 21 24  1  0
 21 25  2  0
 25 22  1  0
 23 26  1  0
 23 27  2  0
 24 28  1  0
 25 29  1  0
 28 29  1  0
  4 30  2  0
  4 31  1  0
 32 31  1  0
 32 33  1  0
 33 34  1  0
 33 35  1  0
 34 36  1  0
 35 37  1  0
 35 38  1  0
 38 36  1  0
 36 39  1  0
 38 40  1  0
 41 39  1  0
 42 39  1  0
 43 41  2  0
 41 44  1  0
 45 42  2  0
 46 43  1  0
 44 47  2  0
 44 45  1  0
 48 46  2  0
 48 47  1  0
 47 49  1  0
  6 50  1  1
  7 51  1  0
  7 52  1  0
  8 53  1  0
  8 54  1  0
 10 55  1  0
 11 56  1  0
 12 57  1  0
 13 58  1  0
 16 59  1  6
 17 60  1  0
 17 61  1  0
 17 62  1  0
 19 63  1  0
 22 64  1  0
 28 65  1  0
 28 66  1  0
 32 67  1  0
 32 68  1  0
 33 69  1  0
 35 70  1  0
 36 71  1  0
 37 72  1  0
 38 73  1  0
 40 74  1  0
 42 75  1  0
 46 76  1  0
 49 77  1  0
 49 78  1  0
M  CHG  3   5  -1  23   1  26  -1
M  END
>  <EmbedRMS>  (229) 
0.0827560585105

$$$$

     RDKit          3D

 78 83  0  0  0  0  0  0  0  0999 V2000
   10.2835   43.7630   33.8276 C   0  0  0  0  0  0  0  0  0  0  0  0
   11.4101   43.5867   34.3765 O   0  0  0  0  0  0  0  0  0  0  0  0
    9.3629   42.7237   33.7352 O   0  0  0  0  0  0  0  0  0  0  0  0
    9.8897   41.2249   34.2934 P   0  0  0  0  0  0  0  0  0  0  0  0
   10.3734   41.4544   35.8829 O   0  0  0  0  0  0  0  0  0  0  0  0
    9.9543   45.0704   33.2065 C   0  0  1  0  0  0  0  0  0  0  0  0
   11.0192   46.0486   33.4572 N   0  0  0  0  0  0  0  0  0  0  0  0
    9.7501   44.8516   31.6924 C   0  0  0  0  0  0  0  0  0  0  0  0
    8.7940   45.8424   31.0871 C   0  0  0  0  0  0  0  0  0  0  0  0
    7.4063   45.5992   31.0986 C   0  0  0  0  0  0  0  0  0  0  0  0
    9.2835   46.9894   30.4420 C   0  0  0  0  0  0  0  0  0  0  0  0
    6.5263   46.4990   30.4817 C   0  0  0  0  0  0  0  0  0  0  0  0
    8.4018   47.8881   29.8291 C   0  0  0  0  0  0  0  0  0  0  0  0
    7.0211   47.6541   29.8574 C   0  0  0  0  0  0  0  0  0  0  0  0
    6.1493   48.5554   29.2410 O   0  0  0  0  0  0  0  0  0  0  0  0
    5.4152   49.5615   29.9460 C   0  0  2  0  0  0  0  0  0  0  0  0
    6.3345   50.7033   30.3980 C   0  0  0  0  0  0  0  0  0  0  0  0
    4.5159   48.9542   31.0219 C   0  0  0  0  0  0  0  0  0  0  0  0
    3.2799   48.4181   30.5816 C   0  0  0  0  0  0  0  0  0  0  0  0
    4.8444   48.8697   32.4202 C   0  0  0  0  0  0  0  0  0  0  0  0
    2.4207   47.8564   31.5165 C   0  0  0  0  0  0  0  0  0  0  0  0
    3.9262   48.2968   33.3263 C   0  0  0  0  0  0  0  0  0  0  0  0
    6.0905   49.3360   32.9409 N   0  0  0  0  0  0  0  0  0  0  0  0
    1.1793   47.2865   31.3089 O   0  0  0  0  0  0  0  0  0  0  0  0
    2.7288   47.8013   32.8315 C   0  0  0  0  0  0  0  0  0  0  0  0
    7.2088   48.5456   32.8222 O   0  0  0  0  0  0  0  0  0  0  0  0
    6.0969   50.2723   33.7659 O   0  0  0  0  0  0  0  0  0  0  0  0
    0.6772   46.8460   32.5780 C   0  0  0  0  0  0  0  0  0  0  0  0
    1.6982   47.1943   33.5230 O   0  0  0  0  0  0  0  0  0  0  0  0
    8.8115   40.1835   34.2125 O   0  0  0  0  0  0  0  0  0  0  0  0
   11.2401   40.7937   33.3672 O   0  0  0  0  0  0  0  0  0  0  0  0
   10.9134   40.6865   31.9955 C   0  0  0  0  0  0  0  0  0  0  0  0
   11.5166   39.3786   31.4404 C   0  0  0  0  0  0  0  0  0  0  0  0
   12.7486   39.0849   32.0734 O   0  0  0  0  0  0  0  0  0  0  0  0
   10.6039   38.1883   31.6669 C   0  0  0  0  0  0  0  0  0  0  0  0
   12.9329   37.6775   32.0284 C   0  0  0  0  0  0  0  0  0  0  0  0
    9.6373   38.0938   30.6484 O   0  0  0  0  0  0  0  0  0  0  0  0
   11.5737   37.0140   31.7055 C   0  0  0  0  0  0  0  0  0  0  0  0
   13.4853   37.2120   33.3238 N   0  0  0  0  0  0  0  0  0  0  0  0
   11.6210   36.3379   30.4683 O   0  0  0  0  0  0  0  0  0  0  0  0
   14.4804   36.3319   33.5726 C   0  0  0  0  0  0  0  0  0  0  0  0
   13.1140   37.6275   34.5689 C   0  0  0  0  0  0  0  0  0  0  0  0
   15.2076   35.6152   32.6740 N   0  0  0  0  0  0  0  0  0  0  0  0
   14.6761   36.2306   34.9181 C   0  0  0  0  0  0  0  0  0  0  0  0
   13.8218   37.0451   35.5783 N   0  0  0  0  0  0  0  0  0  0  0  0
   16.1642   34.7600   33.1548 C   0  0  0  0  0  0  0  0  0  0  0  0
   15.6527   35.3507   35.4131 C   0  0  0  0  0  0  0  0  0  0  0  0
   16.3795   34.6315   34.5043 N   0  0  0  0  0  0  0  0  0  0  0  0
   15.9000   35.1933   36.8090 N   0  0  0  0  0  0  0  0  0  0  0  0
    9.0092   45.4354   33.6669 H   0  0  0  0  0  0  0  0  0  0  0  0
   11.1123   46.2001   34.4885 H   0  0  0  0  0  0  0  0  0  0  0  0
   11.9344   45.6938   33.0933 H   0  0  0  0  0  0  0  0  0  0  0  0
   10.7304   44.8936   31.1678 H   0  0  0  0  0  0  0  0  0  0  0  0
    9.3513   43.8350   31.4760 H   0  0  0  0  0  0  0  0  0  0  0  0
    7.0104   44.7123   31.5777 H   0  0  0  0  0  0  0  0  0  0  0  0
   10.3476   47.1884   30.4106 H   0  0  0  0  0  0  0  0  0  0  0  0
    5.4634   46.2961   30.4889 H   0  0  0  0  0  0  0  0  0  0  0  0
    8.7908   48.7699   29.3362 H   0  0  0  0  0  0  0  0  0  0  0  0
    4.7404   50.0366   29.1995 H   0  0  0  0  0  0  0  0  0  0  0  0
    7.2326   50.3247   30.9233 H   0  0  0  0  0  0  0  0  0  0  0  0
    5.7821   51.4122   31.0508 H   0  0  0  0  0  0  0  0  0  0  0  0
    6.6927   51.2621   29.5072 H   0  0  0  0  0  0  0  0  0  0  0  0
    2.9954   48.4386   29.5369 H   0  0  0  0  0  0  0  0  0  0  0  0
    4.1519   48.2264   34.3828 H   0  0  0  0  0  0  0  0  0  0  0  0
    0.5222   45.7468   32.5692 H   0  0  0  0  0  0  0  0  0  0  0  0
   -0.2676   47.3756   32.8220 H   0  0  0  0  0  0  0  0  0  0  0  0
    9.8226   40.7225   31.7628 H   0  0  0  0  0  0  0  0  0  0  0  0
   11.3830   41.5438   31.4674 H   0  0  0  0  0  0  0  0  0  0  0  0
   11.6978   39.5037   30.3478 H   0  0  0  0  0  0  0  0  0  0  0  0
   10.1084   38.2786   32.6626 H   0  0  0  0  0  0  0  0  0  0  0  0
   13.6638   37.4472   31.2214 H   0  0  0  0  0  0  0  0  0  0  0  0
    8.9763   37.4190   30.9532 H   0  0  0  0  0  0  0  0  0  0  0  0
   11.2821   36.3054   32.5171 H   0  0  0  0  0  0  0  0  0  0  0  0
   10.8658   35.6935   30.4652 H   0  0  0  0  0  0  0  0  0  0  0  0
   12.3293   38.3523   34.7444 H   0  0  0  0  0  0  0  0  0  0  0  0
   16.7561   34.1778   32.4621 H   0  0  0  0  0  0  0  0  0  0  0  0
   16.6345   34.5300   37.1416 H   0  0  0  0  0  0  0  0  0  0  0  0
   15.3533   35.7361   37.5138 H   0  0  0  0  0  0  0  0  0  0  0  0
  1  2  2  0
  1  3  1  0
  3  4  1  0
  4  5  1  0
  6  1  1  0
  7  6  1  0
  6  8  1  0
  8  9  1  0
  9 10  2  0
 11  9  1  0
 10 12  1  0
 13 11  2  0
 12 14  2  0
 14 13  1  0
 14 15  1  0
 15 16  1  0
 16 17  1  0
 16 18  1  0
 18 19  2  0
 20 18  1  0
 19 21  1  0
 22 20  2  0
 20 23  1  0
 21 24  1  0
 21 25  2  0
 25 22  1  0
 23 26  1  0
 23 27  2  0
 24 28  1  0
 25 29  1  0
 28 29  1  0
  4 30  2  0
  4 31  1  0
 32 31  1  0
 32 33  1  0
 33 34  1  0
 33 35  1  0
 34 36  1  0
 35 37  1  0
 35 38  1  0
 38 36  1  0
 36 39  1  0
 38 40  1  0
 41 39  1  0
 42 39  1  0
 43 41  2  0
 41 44  1  0
 45 42  2  0
 46 43  1  0
 44 47  2  0
 44 45  1  0
 48 46  2  0
 48 47  1  0
 47 49  1  0
  6 50  1  1
  7 51  1  0
  7 52  1  0
  8 53  1  0
  8 54  1  0
 10 55  1  0
 11 56  1  0
 12 57  1  0
 13 58  1  0
 16 59  1  6
 17 60  1  0
 17 61  1  0
 17 62  1  0
 19 63  1  0
 22 64  1  0
 28 65  1  0
 28 66  1  0
 32 67  1  0
 32 68  1  0
 33 69  1  0
 35 70  1  0
 36 71  1  0
 37 72  1  0
 38 73  1  0
 40 74  1  0
 42 75  1  0
 46 76  1  0
 49 77  1  0
 49 78  1  0
M  CHG  3   5  -1  23   1  26  -1
M  END
>  <EmbedRMS>  (230) 
0.0835430644916

$$$$

     RDKit          3D

 78 83  0  0  0  0  0  0  0  0999 V2000
   10.2833   43.7664   33.8257 C   0  0  0  0  0  0  0  0  0  0  0  0
   11.4101   43.5933   34.3752 O   0  0  0  0  0  0  0  0  0  0  0  0
    9.3637   42.7256   33.7350 O   0  0  0  0  0  0  0  0  0  0  0  0
    9.8903   41.2269   34.2946 P   0  0  0  0  0  0  0  0  0  0  0  0
   10.3728   41.4562   35.8842 O   0  0  0  0  0  0  0  0  0  0  0  0
    9.9542   45.0698   33.2038 C   0  0  1  0  0  0  0  0  0  0  0  0
   11.0268   46.0326   33.4760 N   0  0  0  0  0  0  0  0  0  0  0  0
    9.7464   44.8488   31.6879 C   0  0  0  0  0  0  0  0  0  0  0  0
    8.7920   45.8416   31.0850 C   0  0  0  0  0  0  0  0  0  0  0  0
    7.4046   45.6001   31.0977 C   0  0  0  0  0  0  0  0  0  0  0  0
    9.2825   46.9877   30.4391 C   0  0  0  0  0  0  0  0  0  0  0  0
    6.5258   46.5002   30.4801 C   0  0  0  0  0  0  0  0  0  0  0  0
    8.4019   47.8880   29.8276 C   0  0  0  0  0  0  0  0  0  0  0  0
    7.0191   47.6556   29.8587 C   0  0  0  0  0  0  0  0  0  0  0  0
    6.1262   48.5501   29.2598 O   0  0  0  0  0  0  0  0  0  0  0  0
    5.7134   49.8002   29.8295 C   0  0  2  0  0  0  0  0  0  0  0  0
    6.8697   50.8022   29.9276 C   0  0  0  0  0  0  0  0  0  0  0  0
    5.0051   49.6018   31.1673 C   0  0  0  0  0  0  0  0  0  0  0  0
    5.7493   49.1443   32.2860 C   0  0  0  0  0  0  0  0  0  0  0  0
    3.5898   49.7985   31.3125 C   0  0  0  0  0  0  0  0  0  0  0  0
    5.0753   48.8611   33.4659 C   0  0  0  0  0  0  0  0  0  0  0  0
    2.9566   49.4794   32.5341 C   0  0  0  0  0  0  0  0  0  0  0  0
    2.7872   50.3314   30.2506 N   0  0  0  0  0  0  0  0  0  0  0  0
    5.5926   48.3929   34.6584 O   0  0  0  0  0  0  0  0  0  0  0  0
    3.7375   49.0159   33.5833 C   0  0  0  0  0  0  0  0  0  0  0  0
    1.5567   49.7762   29.9865 O   0  0  0  0  0  0  0  0  0  0  0  0
    3.0572   51.4525   29.7726 O   0  0  0  0  0  0  0  0  0  0  0  0
    4.5069   48.2455   35.5836 C   0  0  0  0  0  0  0  0  0  0  0  0
    3.3405   48.6549   34.8564 O   0  0  0  0  0  0  0  0  0  0  0  0
    8.8125   40.1849   34.2125 O   0  0  0  0  0  0  0  0  0  0  0  0
   11.2416   40.7949   33.3707 O   0  0  0  0  0  0  0  0  0  0  0  0
   10.9179   40.6922   31.9984 C   0  0  0  0  0  0  0  0  0  0  0  0
   11.5175   39.3838   31.4423 C   0  0  0  0  0  0  0  0  0  0  0  0
   12.7508   39.0887   32.0752 O   0  0  0  0  0  0  0  0  0  0  0  0
   10.6028   38.1916   31.6659 C   0  0  0  0  0  0  0  0  0  0  0  0
   12.9384   37.6819   32.0278 C   0  0  0  0  0  0  0  0  0  0  0  0
    9.6371   38.0806   30.6470 O   0  0  0  0  0  0  0  0  0  0  0  0
   11.5780   37.0215   31.6935 C   0  0  0  0  0  0  0  0  0  0  0  0
   13.4844   37.2120   33.3242 N   0  0  0  0  0  0  0  0  0  0  0  0
   11.6095   36.3202   30.4679 O   0  0  0  0  0  0  0  0  0  0  0  0
   14.4797   36.3318   33.5730 C   0  0  0  0  0  0  0  0  0  0  0  0
   13.1136   37.6278   34.5691 C   0  0  0  0  0  0  0  0  0  0  0  0
   15.2073   35.6155   32.6742 N   0  0  0  0  0  0  0  0  0  0  0  0
   14.6754   36.2305   34.9184 C   0  0  0  0  0  0  0  0  0  0  0  0
   13.8213   37.0452   35.5785 N   0  0  0  0  0  0  0  0  0  0  0  0
   16.1640   34.7604   33.1549 C   0  0  0  0  0  0  0  0  0  0  0  0
   15.6524   35.3507   35.4132 C   0  0  0  0  0  0  0  0  0  0  0  0
   16.3794   34.6318   34.5044 N   0  0  0  0  0  0  0  0  0  0  0  0
   15.8999   35.1934   36.8091 N   0  0  0  0  0  0  0  0  0  0  0  0
    9.0115   45.4320   33.6716 H   0  0  0  0  0  0  0  0  0  0  0  0
   11.8900   45.7666   32.9473 H   0  0  0  0  0  0  0  0  0  0  0  0
   10.7250   46.9692   33.1218 H   0  0  0  0  0  0  0  0  0  0  0  0
   10.7228   44.8824   31.1560 H   0  0  0  0  0  0  0  0  0  0  0  0
    9.3414   43.8336   31.4763 H   0  0  0  0  0  0  0  0  0  0  0  0
    7.0076   44.7151   31.5793 H   0  0  0  0  0  0  0  0  0  0  0  0
   10.3473   47.1819   30.4015 H   0  0  0  0  0  0  0  0  0  0  0  0
    5.4604   46.3089   30.4985 H   0  0  0  0  0  0  0  0  0  0  0  0
    8.7980   48.7572   29.3198 H   0  0  0  0  0  0  0  0  0  0  0  0
    5.0135   50.2329   29.0915 H   0  0  0  0  0  0  0  0  0  0  0  0
    6.4828   51.7912   30.2536 H   0  0  0  0  0  0  0  0  0  0  0  0
    7.3458   50.9235   28.9316 H   0  0  0  0  0  0  0  0  0  0  0  0
    7.6417   50.4726   30.6515 H   0  0  0  0  0  0  0  0  0  0  0  0
    6.8180   48.9881   32.2392 H   0  0  0  0  0  0  0  0  0  0  0  0
    1.8904   49.6121   32.6664 H   0  0  0  0  0  0  0  0  0  0  0  0
    4.4105   47.1847   35.8966 H   0  0  0  0  0  0  0  0  0  0  0  0
    4.6604   48.9041   36.4640 H   0  0  0  0  0  0  0  0  0  0  0  0
    9.8291   40.7409   31.7626 H   0  0  0  0  0  0  0  0  0  0  0  0
   11.3952   41.5478   31.4744 H   0  0  0  0  0  0  0  0  0  0  0  0
   11.6981   39.5115   30.3500 H   0  0  0  0  0  0  0  0  0  0  0  0
   10.1117   38.2604   32.6661 H   0  0  0  0  0  0  0  0  0  0  0  0
   13.6767   37.4556   31.2267 H   0  0  0  0  0  0  0  0  0  0  0  0
    8.8961   38.6952   30.8872 H   0  0  0  0  0  0  0  0  0  0  0  0
   11.2791   36.3072   32.4922 H   0  0  0  0  0  0  0  0  0  0  0  0
   11.8828   36.9598   29.7589 H   0  0  0  0  0  0  0  0  0  0  0  0
   12.3300   38.3539   34.7446 H   0  0  0  0  0  0  0  0  0  0  0  0
   16.7561   34.1785   32.4622 H   0  0  0  0  0  0  0  0  0  0  0  0
   15.3531   35.7360   37.5140 H   0  0  0  0  0  0  0  0  0  0  0  0
   16.6347   34.5303   37.1416 H   0  0  0  0  0  0  0  0  0  0  0  0
  1  2  2  0
  1  3  1  0
  3  4  1  0
  4  5  1  0
  6  1  1  0
  7  6  1  0
  6  8  1  0
  8  9  1  0
  9 10  2  0
 11  9  1  0
 10 12  1  0
 13 11  2  0
 12 14  2  0
 14 13  1  0
 14 15  1  0
 15 16  1  0
 16 17  1  0
 16 18  1  0
 18 19  2  0
 20 18  1  0
 19 21  1  0
 22 20  2  0
 20 23  1  0
 21 24  1  0
 21 25  2  0
 25 22  1  0
 23 26  1  0
 23 27  2  0
 24 28  1  0
 25 29  1  0
 28 29  1  0
  4 30  2  0
  4 31  1  0
 32 31  1  0
 32 33  1  0
 33 34  1  0
 33 35  1  0
 34 36  1  0
 35 37  1  0
 35 38  1  0
 38 36  1  0
 36 39  1  0
 38 40  1  0
 41 39  1  0
 42 39  1  0
 43 41  2  0
 41 44  1  0
 45 42  2  0
 46 43  1  0
 44 47  2  0
 44 45  1  0
 48 46  2  0
 48 47  1  0
 47 49  1  0
  6 50  1  1
  7 51  1  0
  7 52  1  0
  8 53  1  0
  8 54  1  0
 10 55  1  0
 11 56  1  0
 12 57  1  0
 13 58  1  0
 16 59  1  6
 17 60  1  0
 17 61  1  0
 17 62  1  0
 19 63  1  0
 22 64  1  0
 28 65  1  0
 28 66  1  0
 32 67  1  0
 32 68  1  0
 33 69  1  0
 35 70  1  0
 36 71  1  0
 37 72  1  0
 38 73  1  0
 40 74  1  0
 42 75  1  0
 46 76  1  0
 49 77  1  0
 49 78  1  0
M  CHG  3   5  -1  23   1  26  -1
M  END
>  <EmbedRMS>  (231) 
0.0820716277113

$$$$

     RDKit          3D

 78 83  0  0  0  0  0  0  0  0999 V2000
   10.2837   43.7627   33.8274 C   0  0  0  0  0  0  0  0  0  0  0  0
   11.4101   43.5864   34.3766 O   0  0  0  0  0  0  0  0  0  0  0  0
    9.3631   42.7236   33.7350 O   0  0  0  0  0  0  0  0  0  0  0  0
    9.8896   41.2250   34.2940 P   0  0  0  0  0  0  0  0  0  0  0  0
   10.3728   41.4548   35.8835 O   0  0  0  0  0  0  0  0  0  0  0  0
    9.9549   45.0698   33.2062 C   0  0  1  0  0  0  0  0  0  0  0  0
   11.0198   46.0479   33.4574 N   0  0  0  0  0  0  0  0  0  0  0  0
    9.7504   44.8505   31.6921 C   0  0  0  0  0  0  0  0  0  0  0  0
    8.7945   45.8411   31.0863 C   0  0  0  0  0  0  0  0  0  0  0  0
    7.4078   45.6007   31.1002 C   0  0  0  0  0  0  0  0  0  0  0  0
    9.2830   46.9886   30.4445 C   0  0  0  0  0  0  0  0  0  0  0  0
    6.5283   46.5025   30.4862 C   0  0  0  0  0  0  0  0  0  0  0  0
    8.4033   47.8900   29.8332 C   0  0  0  0  0  0  0  0  0  0  0  0
    7.0143   47.6517   29.8474 C   0  0  0  0  0  0  0  0  0  0  0  0
    6.0855   48.5203   29.2505 O   0  0  0  0  0  0  0  0  0  0  0  0
    6.4074   49.6672   28.4632 C   0  0  2  0  0  0  0  0  0  0  0  0
    5.1518   50.5163   28.2632 C   0  0  0  0  0  0  0  0  0  0  0  0
    7.0159   49.2681   27.1270 C   0  0  0  0  0  0  0  0  0  0  0  0
    8.2735   49.8187   26.7773 C   0  0  0  0  0  0  0  0  0  0  0  0
    6.3481   48.4072   26.1920 C   0  0  0  0  0  0  0  0  0  0  0  0
    8.8180   49.5024   25.5394 C   0  0  0  0  0  0  0  0  0  0  0  0
    6.9440   48.1326   24.9414 C   0  0  0  0  0  0  0  0  0  0  0  0
    5.0722   47.8230   26.4807 N   0  0  0  0  0  0  0  0  0  0  0  0
   10.0195   49.9180   24.9982 O   0  0  0  0  0  0  0  0  0  0  0  0
    8.1808   48.6967   24.6595 C   0  0  0  0  0  0  0  0  0  0  0  0
    4.9648   46.8705   27.4654 O   0  0  0  0  0  0  0  0  0  0  0  0
    4.1409   47.9456   25.6590 O   0  0  0  0  0  0  0  0  0  0  0  0
   10.1431   49.3340   23.6945 C   0  0  0  0  0  0  0  0  0  0  0  0
    8.9471   48.5621   23.5179 O   0  0  0  0  0  0  0  0  0  0  0  0
    8.8117   40.1833   34.2124 O   0  0  0  0  0  0  0  0  0  0  0  0
   11.2402   40.7934   33.3690 O   0  0  0  0  0  0  0  0  0  0  0  0
   10.9145   40.6896   31.9971 C   0  0  0  0  0  0  0  0  0  0  0  0
   11.5262   39.3883   31.4374 C   0  0  0  0  0  0  0  0  0  0  0  0
   12.7504   39.0887   32.0814 O   0  0  0  0  0  0  0  0  0  0  0  0
   10.6114   38.1908   31.6458 C   0  0  0  0  0  0  0  0  0  0  0  0
   12.9355   37.6811   32.0304 C   0  0  0  0  0  0  0  0  0  0  0  0
    9.6146   38.0859   30.6530 O   0  0  0  0  0  0  0  0  0  0  0  0
   11.5769   37.0147   31.7012 C   0  0  0  0  0  0  0  0  0  0  0  0
   13.4847   37.2112   33.3248 N   0  0  0  0  0  0  0  0  0  0  0  0
   11.6193   36.3258   30.4724 O   0  0  0  0  0  0  0  0  0  0  0  0
   14.4801   36.3315   33.5731 C   0  0  0  0  0  0  0  0  0  0  0  0
   13.1138   37.6269   34.5698 C   0  0  0  0  0  0  0  0  0  0  0  0
   15.2074   35.6152   32.6742 N   0  0  0  0  0  0  0  0  0  0  0  0
   14.6759   36.2303   34.9185 C   0  0  0  0  0  0  0  0  0  0  0  0
   13.8218   37.0446   35.5790 N   0  0  0  0  0  0  0  0  0  0  0  0
   16.1641   34.7601   33.1549 C   0  0  0  0  0  0  0  0  0  0  0  0
   15.6529   35.3506   35.4132 C   0  0  0  0  0  0  0  0  0  0  0  0
   16.3795   34.6314   34.5044 N   0  0  0  0  0  0  0  0  0  0  0  0
   15.9004   35.1934   36.8090 N   0  0  0  0  0  0  0  0  0  0  0  0
    9.0099   45.4347   33.6668 H   0  0  0  0  0  0  0  0  0  0  0  0
   11.9353   45.6935   33.0936 H   0  0  0  0  0  0  0  0  0  0  0  0
   11.1131   46.1978   34.4890 H   0  0  0  0  0  0  0  0  0  0  0  0
    9.3514   43.8337   31.4758 H   0  0  0  0  0  0  0  0  0  0  0  0
   10.7309   44.8925   31.1678 H   0  0  0  0  0  0  0  0  0  0  0  0
    7.0113   44.7157   31.5822 H   0  0  0  0  0  0  0  0  0  0  0  0
   10.3472   47.1882   30.4169 H   0  0  0  0  0  0  0  0  0  0  0  0
    5.4640   46.3055   30.5053 H   0  0  0  0  0  0  0  0  0  0  0  0
    8.8173   48.7672   29.3600 H   0  0  0  0  0  0  0  0  0  0  0  0
    7.1155   50.3028   29.0401 H   0  0  0  0  0  0  0  0  0  0  0  0
    4.3369   49.9304   27.7921 H   0  0  0  0  0  0  0  0  0  0  0  0
    5.3817   51.3975   27.6267 H   0  0  0  0  0  0  0  0  0  0  0  0
    4.7889   50.8804   29.2476 H   0  0  0  0  0  0  0  0  0  0  0  0
    8.8092   50.4816   27.4451 H   0  0  0  0  0  0  0  0  0  0  0  0
    6.4593   47.4890   24.2183 H   0  0  0  0  0  0  0  0  0  0  0  0
   10.2034   50.1294   22.9219 H   0  0  0  0  0  0  0  0  0  0  0  0
   11.0346   48.6737   23.6529 H   0  0  0  0  0  0  0  0  0  0  0  0
   11.3785   41.5526   31.4732 H   0  0  0  0  0  0  0  0  0  0  0  0
    9.8236   40.7188   31.7641 H   0  0  0  0  0  0  0  0  0  0  0  0
   11.7285   39.5307   30.3513 H   0  0  0  0  0  0  0  0  0  0  0  0
   10.1123   38.2730   32.6372 H   0  0  0  0  0  0  0  0  0  0  0  0
   13.6688   37.4560   31.2244 H   0  0  0  0  0  0  0  0  0  0  0  0
   10.0535   38.1119   29.7632 H   0  0  0  0  0  0  0  0  0  0  0  0
   11.2611   36.3148   32.5103 H   0  0  0  0  0  0  0  0  0  0  0  0
   12.1501   35.5022   30.6323 H   0  0  0  0  0  0  0  0  0  0  0  0
   12.3298   38.3527   34.7455 H   0  0  0  0  0  0  0  0  0  0  0  0
   16.7562   34.1781   32.4622 H   0  0  0  0  0  0  0  0  0  0  0  0
   15.3532   35.7354   37.5142 H   0  0  0  0  0  0  0  0  0  0  0  0
   16.6346   34.5297   37.1412 H   0  0  0  0  0  0  0  0  0  0  0  0
  1  2  2  0
  1  3  1  0
  3  4  1  0
  4  5  1  0
  6  1  1  0
  7  6  1  0
  6  8  1  0
  8  9  1  0
  9 10  2  0
 11  9  1  0
 10 12  1  0
 13 11  2  0
 12 14  2  0
 14 13  1  0
 14 15  1  0
 15 16  1  0
 16 17  1  0
 16 18  1  0
 18 19  2  0
 20 18  1  0
 19 21  1  0
 22 20  2  0
 20 23  1  0
 21 24  1  0
 21 25  2  0
 25 22  1  0
 23 26  1  0
 23 27  2  0
 24 28  1  0
 25 29  1  0
 28 29  1  0
  4 30  2  0
  4 31  1  0
 32 31  1  0
 32 33  1  0
 33 34  1  0
 33 35  1  0
 34 36  1  0
 35 37  1  0
 35 38  1  0
 38 36  1  0
 36 39  1  0
 38 40  1  0
 41 39  1  0
 42 39  1  0
 43 41  2  0
 41 44  1  0
 45 42  2  0
 46 43  1  0
 44 47  2  0
 44 45  1  0
 48 46  2  0
 48 47  1  0
 47 49  1  0
  6 50  1  1
  7 51  1  0
  7 52  1  0
  8 53  1  0
  8 54  1  0
 10 55  1  0
 11 56  1  0
 12 57  1  0
 13 58  1  0
 16 59  1  1
 17 60  1  0
 17 61  1  0
 17 62  1  0
 19 63  1  0
 22 64  1  0
 28 65  1  0
 28 66  1  0
 32 67  1  0
 32 68  1  0
 33 69  1  0
 35 70  1  0
 36 71  1  0
 37 72  1  0
 38 73  1  0
 40 74  1  0
 42 75  1  0
 46 76  1  0
 49 77  1  0
 49 78  1  0
M  CHG  3   5  -1  23   1  26  -1
M  END
>  <EmbedRMS>  (232) 
0.0824798619555

$$$$

     RDKit          3D

 78 83  0  0  0  0  0  0  0  0999 V2000
   10.2838   43.7626   33.8276 C   0  0  0  0  0  0  0  0  0  0  0  0
   11.4103   43.5864   34.3767 O   0  0  0  0  0  0  0  0  0  0  0  0
    9.3632   42.7235   33.7351 O   0  0  0  0  0  0  0  0  0  0  0  0
    9.8898   41.2247   34.2940 P   0  0  0  0  0  0  0  0  0  0  0  0
   10.3724   41.4545   35.8836 O   0  0  0  0  0  0  0  0  0  0  0  0
    9.9548   45.0700   33.2064 C   0  0  1  0  0  0  0  0  0  0  0  0
   11.0196   46.0482   33.4572 N   0  0  0  0  0  0  0  0  0  0  0  0
    9.7506   44.8512   31.6923 C   0  0  0  0  0  0  0  0  0  0  0  0
    8.7944   45.8418   31.0868 C   0  0  0  0  0  0  0  0  0  0  0  0
    7.4077   45.6002   31.1000 C   0  0  0  0  0  0  0  0  0  0  0  0
    9.2827   46.9889   30.4440 C   0  0  0  0  0  0  0  0  0  0  0  0
    6.5258   46.4992   30.4847 C   0  0  0  0  0  0  0  0  0  0  0  0
    8.4010   47.8878   29.8326 C   0  0  0  0  0  0  0  0  0  0  0  0
    7.0194   47.6563   29.8478 C   0  0  0  0  0  0  0  0  0  0  0  0
    6.1813   48.5988   29.2292 O   0  0  0  0  0  0  0  0  0  0  0  0
    4.7526   48.5555   29.2236 C   0  0  2  0  0  0  0  0  0  0  0  0
    4.2052   49.5941   28.2452 C   0  0  0  0  0  0  0  0  0  0  0  0
    4.1631   48.7644   30.6112 C   0  0  0  0  0  0  0  0  0  0  0  0
    2.9616   48.0783   30.9126 C   0  0  0  0  0  0  0  0  0  0  0  0
    4.7822   49.5710   31.6297 C   0  0  0  0  0  0  0  0  0  0  0  0
    2.4357   48.1849   32.1928 C   0  0  0  0  0  0  0  0  0  0  0  0
    4.2071   49.6263   32.9195 C   0  0  0  0  0  0  0  0  0  0  0  0
    5.9842   50.3197   31.3920 N   0  0  0  0  0  0  0  0  0  0  0  0
    1.2924   47.6006   32.7031 O   0  0  0  0  0  0  0  0  0  0  0  0
    3.0342   48.9227   33.1548 C   0  0  0  0  0  0  0  0  0  0  0  0
    6.9404   50.4044   32.3777 O   0  0  0  0  0  0  0  0  0  0  0  0
    6.0753   51.0709   30.4005 O   0  0  0  0  0  0  0  0  0  0  0  0
    1.1666   47.9993   34.0749 C   0  0  0  0  0  0  0  0  0  0  0  0
    2.2996   48.8430   34.3223 O   0  0  0  0  0  0  0  0  0  0  0  0
    8.8118   40.1831   34.2121 O   0  0  0  0  0  0  0  0  0  0  0  0
   11.2413   40.7934   33.3696 O   0  0  0  0  0  0  0  0  0  0  0  0
   10.9178   40.6902   31.9971 C   0  0  0  0  0  0  0  0  0  0  0  0
   11.5181   39.3813   31.4408 C   0  0  0  0  0  0  0  0  0  0  0  0
   12.7497   39.0870   32.0745 O   0  0  0  0  0  0  0  0  0  0  0  0
   10.6045   38.1891   31.6655 C   0  0  0  0  0  0  0  0  0  0  0  0
   12.9344   37.6801   32.0290 C   0  0  0  0  0  0  0  0  0  0  0  0
    9.6418   38.0758   30.6440 O   0  0  0  0  0  0  0  0  0  0  0  0
   11.5741   37.0169   31.7045 C   0  0  0  0  0  0  0  0  0  0  0  0
   13.4851   37.2125   33.3241 N   0  0  0  0  0  0  0  0  0  0  0  0
   11.6079   36.3407   30.4679 O   0  0  0  0  0  0  0  0  0  0  0  0
   14.4801   36.3321   33.5727 C   0  0  0  0  0  0  0  0  0  0  0  0
   13.1140   37.6277   34.5692 C   0  0  0  0  0  0  0  0  0  0  0  0
   15.2073   35.6155   32.6739 N   0  0  0  0  0  0  0  0  0  0  0  0
   14.6758   36.2306   34.9182 C   0  0  0  0  0  0  0  0  0  0  0  0
   13.8217   37.0451   35.5784 N   0  0  0  0  0  0  0  0  0  0  0  0
   16.1639   34.7602   33.1546 C   0  0  0  0  0  0  0  0  0  0  0  0
   15.6526   35.3506   35.4130 C   0  0  0  0  0  0  0  0  0  0  0  0
   16.3794   34.6316   34.5041 N   0  0  0  0  0  0  0  0  0  0  0  0
   15.9001   35.1933   36.8089 N   0  0  0  0  0  0  0  0  0  0  0  0
    9.0097   45.4348   33.6669 H   0  0  0  0  0  0  0  0  0  0  0  0
   11.9348   45.6935   33.0931 H   0  0  0  0  0  0  0  0  0  0  0  0
   11.1129   46.1994   34.4885 H   0  0  0  0  0  0  0  0  0  0  0  0
    9.3520   43.8345   31.4758 H   0  0  0  0  0  0  0  0  0  0  0  0
   10.7310   44.8933   31.1677 H   0  0  0  0  0  0  0  0  0  0  0  0
    7.0127   44.7144   31.5823 H   0  0  0  0  0  0  0  0  0  0  0  0
   10.3467   47.1894   30.4147 H   0  0  0  0  0  0  0  0  0  0  0  0
    5.4675   46.2824   30.5130 H   0  0  0  0  0  0  0  0  0  0  0  0
    8.7933   48.7719   29.3461 H   0  0  0  0  0  0  0  0  0  0  0  0
    4.4437   47.5610   28.8296 H   0  0  0  0  0  0  0  0  0  0  0  0
    4.6522   49.4350   27.2410 H   0  0  0  0  0  0  0  0  0  0  0  0
    4.4369   50.6259   28.5763 H   0  0  0  0  0  0  0  0  0  0  0  0
    3.1025   49.4900   28.1574 H   0  0  0  0  0  0  0  0  0  0  0  0
    2.4599   47.4657   30.1739 H   0  0  0  0  0  0  0  0  0  0  0  0
    4.6527   50.2169   33.7096 H   0  0  0  0  0  0  0  0  0  0  0  0
    0.2252   48.5682   34.2248 H   0  0  0  0  0  0  0  0  0  0  0  0
    1.1995   47.1095   34.7380 H   0  0  0  0  0  0  0  0  0  0  0  0
    9.8290   40.7386   31.7614 H   0  0  0  0  0  0  0  0  0  0  0  0
   11.3949   41.5458   31.4729 H   0  0  0  0  0  0  0  0  0  0  0  0
   11.6994   39.5070   30.3483 H   0  0  0  0  0  0  0  0  0  0  0  0
   10.1090   38.2634   32.6632 H   0  0  0  0  0  0  0  0  0  0  0  0
   13.6662   37.4514   31.2224 H   0  0  0  0  0  0  0  0  0  0  0  0
    8.9009   38.6924   30.8793 H   0  0  0  0  0  0  0  0  0  0  0  0
   11.2650   36.3082   32.5086 H   0  0  0  0  0  0  0  0  0  0  0  0
   12.1372   35.5140   30.6163 H   0  0  0  0  0  0  0  0  0  0  0  0
   12.3297   38.3530   34.7449 H   0  0  0  0  0  0  0  0  0  0  0  0
   16.7558   34.1781   32.4619 H   0  0  0  0  0  0  0  0  0  0  0  0
   15.3533   35.7360   37.5138 H   0  0  0  0  0  0  0  0  0  0  0  0
   16.6346   34.5300   37.1414 H   0  0  0  0  0  0  0  0  0  0  0  0
  1  2  2  0
  1  3  1  0
  3  4  1  0
  4  5  1  0
  6  1  1  0
  7  6  1  0
  6  8  1  0
  8  9  1  0
  9 10  2  0
 11  9  1  0
 10 12  1  0
 13 11  2  0
 12 14  2  0
 14 13  1  0
 14 15  1  0
 15 16  1  0
 16 17  1  0
 16 18  1  0
 18 19  2  0
 20 18  1  0
 19 21  1  0
 22 20  2  0
 20 23  1  0
 21 24  1  0
 21 25  2  0
 25 22  1  0
 23 26  1  0
 23 27  2  0
 24 28  1  0
 25 29  1  0
 28 29  1  0
  4 30  2  0
  4 31  1  0
 32 31  1  0
 32 33  1  0
 33 34  1  0
 33 35  1  0
 34 36  1  0
 35 37  1  0
 35 38  1  0
 38 36  1  0
 36 39  1  0
 38 40  1  0
 41 39  1  0
 42 39  1  0
 43 41  2  0
 41 44  1  0
 45 42  2  0
 46 43  1  0
 44 47  2  0
 44 45  1  0
 48 46  2  0
 48 47  1  0
 47 49  1  0
  6 50  1  1
  7 51  1  0
  7 52  1  0
  8 53  1  0
  8 54  1  0
 10 55  1  0
 11 56  1  0
 12 57  1  0
 13 58  1  0
 16 59  1  6
 17 60  1  0
 17 61  1  0
 17 62  1  0
 19 63  1  0
 22 64  1  0
 28 65  1  0
 28 66  1  0
 32 67  1  0
 32 68  1  0
 33 69  1  0
 35 70  1  0
 36 71  1  0
 37 72  1  0
 38 73  1  0
 40 74  1  0
 42 75  1  0
 46 76  1  0
 49 77  1  0
 49 78  1  0
M  CHG  3   5  -1  23   1  26  -1
M  END
>  <EmbedRMS>  (233) 
0.0837134893992

$$$$

     RDKit          3D

 78 83  0  0  0  0  0  0  0  0999 V2000
   10.2839   43.7626   33.8277 C   0  0  0  0  0  0  0  0  0  0  0  0
   11.4104   43.5863   34.3767 O   0  0  0  0  0  0  0  0  0  0  0  0
    9.3631   42.7236   33.7354 O   0  0  0  0  0  0  0  0  0  0  0  0
    9.8895   41.2249   34.2944 P   0  0  0  0  0  0  0  0  0  0  0  0
   10.3727   41.4546   35.8839 O   0  0  0  0  0  0  0  0  0  0  0  0
    9.9548   45.0699   33.2065 C   0  0  1  0  0  0  0  0  0  0  0  0
   11.0199   46.0480   33.4569 N   0  0  0  0  0  0  0  0  0  0  0  0
    9.7500   44.8508   31.6926 C   0  0  0  0  0  0  0  0  0  0  0  0
    8.7941   45.8419   31.0873 C   0  0  0  0  0  0  0  0  0  0  0  0
    7.4076   45.6009   31.0998 C   0  0  0  0  0  0  0  0  0  0  0  0
    9.2830   46.9888   30.4447 C   0  0  0  0  0  0  0  0  0  0  0  0
    6.5284   46.5015   30.4834 C   0  0  0  0  0  0  0  0  0  0  0  0
    8.4039   47.8896   29.8315 C   0  0  0  0  0  0  0  0  0  0  0  0
    7.0140   47.6531   29.8487 C   0  0  0  0  0  0  0  0  0  0  0  0
    6.0829   48.5165   29.2482 O   0  0  0  0  0  0  0  0  0  0  0  0
    6.3681   49.7893   28.6622 C   0  0  2  0  0  0  0  0  0  0  0  0
    6.6726   50.8395   29.7373 C   0  0  0  0  0  0  0  0  0  0  0  0
    5.2132   50.2533   27.7903 C   0  0  0  0  0  0  0  0  0  0  0  0
    5.5292   51.0673   26.6746 C   0  0  0  0  0  0  0  0  0  0  0  0
    3.8409   49.8879   28.0214 C   0  0  0  0  0  0  0  0  0  0  0  0
    4.5053   51.4609   25.8237 C   0  0  0  0  0  0  0  0  0  0  0  0
    2.8446   50.3069   27.1094 C   0  0  0  0  0  0  0  0  0  0  0  0
    3.4387   49.1076   29.1579 N   0  0  0  0  0  0  0  0  0  0  0  0
    4.5862   52.2396   24.6853 O   0  0  0  0  0  0  0  0  0  0  0  0
    3.2207   51.0932   26.0294 C   0  0  0  0  0  0  0  0  0  0  0  0
    3.8082   49.4890   30.4261 O   0  0  0  0  0  0  0  0  0  0  0  0
    2.5724   48.2185   29.0259 O   0  0  0  0  0  0  0  0  0  0  0  0
    3.2649   52.3681   24.1427 C   0  0  0  0  0  0  0  0  0  0  0  0
    2.4236   51.6209   25.0319 O   0  0  0  0  0  0  0  0  0  0  0  0
    8.8114   40.1833   34.2129 O   0  0  0  0  0  0  0  0  0  0  0  0
   11.2402   40.7930   33.3696 O   0  0  0  0  0  0  0  0  0  0  0  0
   10.9151   40.6903   31.9975 C   0  0  0  0  0  0  0  0  0  0  0  0
   11.5252   39.3885   31.4375 C   0  0  0  0  0  0  0  0  0  0  0  0
   12.7500   39.0873   32.0798 O   0  0  0  0  0  0  0  0  0  0  0  0
   10.6092   38.1925   31.6469 C   0  0  0  0  0  0  0  0  0  0  0  0
   12.9332   37.6792   32.0294 C   0  0  0  0  0  0  0  0  0  0  0  0
    9.6122   38.0894   30.6542 O   0  0  0  0  0  0  0  0  0  0  0  0
   11.5743   37.0144   31.7024 C   0  0  0  0  0  0  0  0  0  0  0  0
   13.4844   37.2108   33.3241 N   0  0  0  0  0  0  0  0  0  0  0  0
   11.6298   36.3238   30.4740 O   0  0  0  0  0  0  0  0  0  0  0  0
   14.4802   36.3313   33.5727 C   0  0  0  0  0  0  0  0  0  0  0  0
   13.1138   37.6266   34.5692 C   0  0  0  0  0  0  0  0  0  0  0  0
   15.2075   35.6149   32.6739 N   0  0  0  0  0  0  0  0  0  0  0  0
   14.6761   36.2303   34.9182 C   0  0  0  0  0  0  0  0  0  0  0  0
   13.8220   37.0447   35.5785 N   0  0  0  0  0  0  0  0  0  0  0  0
   16.1643   34.7600   33.1547 C   0  0  0  0  0  0  0  0  0  0  0  0
   15.6529   35.3505   35.4130 C   0  0  0  0  0  0  0  0  0  0  0  0
   16.3798   34.6315   34.5042 N   0  0  0  0  0  0  0  0  0  0  0  0
   15.9003   35.1932   36.8090 N   0  0  0  0  0  0  0  0  0  0  0  0
    9.0100   45.4349   33.6673 H   0  0  0  0  0  0  0  0  0  0  0  0
   11.9349   45.6931   33.0924 H   0  0  0  0  0  0  0  0  0  0  0  0
   11.1136   46.1993   34.4881 H   0  0  0  0  0  0  0  0  0  0  0  0
   10.7302   44.8921   31.1676 H   0  0  0  0  0  0  0  0  0  0  0  0
    9.3506   43.8343   31.4765 H   0  0  0  0  0  0  0  0  0  0  0  0
    7.0109   44.7156   31.5814 H   0  0  0  0  0  0  0  0  0  0  0  0
   10.3476   47.1866   30.4149 H   0  0  0  0  0  0  0  0  0  0  0  0
    5.4639   46.3040   30.5004 H   0  0  0  0  0  0  0  0  0  0  0  0
    8.8214   48.7590   29.3451 H   0  0  0  0  0  0  0  0  0  0  0  0
    7.2613   49.6797   28.0089 H   0  0  0  0  0  0  0  0  0  0  0  0
    7.4967   50.4995   30.3966 H   0  0  0  0  0  0  0  0  0  0  0  0
    6.9855   51.7914   29.2578 H   0  0  0  0  0  0  0  0  0  0  0  0
    5.7821   51.0393   30.3662 H   0  0  0  0  0  0  0  0  0  0  0  0
    6.5471   51.3750   26.4695 H   0  0  0  0  0  0  0  0  0  0  0  0
    1.8042   50.0441   27.2526 H   0  0  0  0  0  0  0  0  0  0  0  0
    3.2249   51.9337   23.1218 H   0  0  0  0  0  0  0  0  0  0  0  0
    2.9571   53.4347   24.1298 H   0  0  0  0  0  0  0  0  0  0  0  0
    9.8243   40.7216   31.7640 H   0  0  0  0  0  0  0  0  0  0  0  0
   11.3806   41.5528   31.4740 H   0  0  0  0  0  0  0  0  0  0  0  0
   11.7265   39.5311   30.3512 H   0  0  0  0  0  0  0  0  0  0  0  0
   10.1110   38.2746   32.6387 H   0  0  0  0  0  0  0  0  0  0  0  0
   13.6652   37.4518   31.2226 H   0  0  0  0  0  0  0  0  0  0  0  0
   10.0511   38.1141   29.7644 H   0  0  0  0  0  0  0  0  0  0  0  0
   11.2762   36.3141   32.5189 H   0  0  0  0  0  0  0  0  0  0  0  0
   10.8593   35.6977   30.4640 H   0  0  0  0  0  0  0  0  0  0  0  0
   12.3294   38.3518   34.7449 H   0  0  0  0  0  0  0  0  0  0  0  0
   16.7564   34.1780   32.4620 H   0  0  0  0  0  0  0  0  0  0  0  0
   15.3534   35.7359   37.5138 H   0  0  0  0  0  0  0  0  0  0  0  0
   16.6349   34.5300   37.1415 H   0  0  0  0  0  0  0  0  0  0  0  0
  1  2  2  0
  1  3  1  0
  3  4  1  0
  4  5  1  0
  6  1  1  0
  7  6  1  0
  6  8  1  0
  8  9  1  0
  9 10  2  0
 11  9  1  0
 10 12  1  0
 13 11  2  0
 12 14  2  0
 14 13  1  0
 14 15  1  0
 15 16  1  0
 16 17  1  0
 16 18  1  0
 18 19  2  0
 20 18  1  0
 19 21  1  0
 22 20  2  0
 20 23  1  0
 21 24  1  0
 21 25  2  0
 25 22  1  0
 23 26  1  0
 23 27  2  0
 24 28  1  0
 25 29  1  0
 28 29  1  0
  4 30  2  0
  4 31  1  0
 32 31  1  0
 32 33  1  0
 33 34  1  0
 33 35  1  0
 34 36  1  0
 35 37  1  0
 35 38  1  0
 38 36  1  0
 36 39  1  0
 38 40  1  0
 41 39  1  0
 42 39  1  0
 43 41  2  0
 41 44  1  0
 45 42  2  0
 46 43  1  0
 44 47  2  0
 44 45  1  0
 48 46  2  0
 48 47  1  0
 47 49  1  0
  6 50  1  1
  7 51  1  0
  7 52  1  0
  8 53  1  0
  8 54  1  0
 10 55  1  0
 11 56  1  0
 12 57  1  0
 13 58  1  0
 16 59  1  6
 17 60  1  0
 17 61  1  0
 17 62  1  0
 19 63  1  0
 22 64  1  0
 28 65  1  0
 28 66  1  0
 32 67  1  0
 32 68  1  0
 33 69  1  0
 35 70  1  0
 36 71  1  0
 37 72  1  0
 38 73  1  0
 40 74  1  0
 42 75  1  0
 46 76  1  0
 49 77  1  0
 49 78  1  0
M  CHG  3   5  -1  23   1  26  -1
M  END
>  <EmbedRMS>  (234) 
0.0827089583525

$$$$

     RDKit          3D

 78 83  0  0  0  0  0  0  0  0999 V2000
   10.2835   43.7662   33.8256 C   0  0  0  0  0  0  0  0  0  0  0  0
   11.4102   43.5931   34.3752 O   0  0  0  0  0  0  0  0  0  0  0  0
    9.3639   42.7254   33.7347 O   0  0  0  0  0  0  0  0  0  0  0  0
    9.8907   41.2265   34.2938 P   0  0  0  0  0  0  0  0  0  0  0  0
   10.3733   41.4559   35.8835 O   0  0  0  0  0  0  0  0  0  0  0  0
    9.9546   45.0695   33.2035 C   0  0  1  0  0  0  0  0  0  0  0  0
   11.0271   46.0324   33.4760 N   0  0  0  0  0  0  0  0  0  0  0  0
    9.7471   44.8484   31.6875 C   0  0  0  0  0  0  0  0  0  0  0  0
    8.7925   45.8408   31.0842 C   0  0  0  0  0  0  0  0  0  0  0  0
    7.4059   45.6007   31.0990 C   0  0  0  0  0  0  0  0  0  0  0  0
    9.2818   46.9877   30.4416 C   0  0  0  0  0  0  0  0  0  0  0  0
    6.5245   46.5004   30.4845 C   0  0  0  0  0  0  0  0  0  0  0  0
    8.4006   47.8880   29.8320 C   0  0  0  0  0  0  0  0  0  0  0  0
    7.0188   47.6573   29.8476 C   0  0  0  0  0  0  0  0  0  0  0  0
    6.1811   48.6010   29.2301 O   0  0  0  0  0  0  0  0  0  0  0  0
    4.7528   48.5506   29.2124 C   0  0  2  0  0  0  0  0  0  0  0  0
    4.2087   49.5843   28.2270 C   0  0  0  0  0  0  0  0  0  0  0  0
    4.1477   48.7585   30.5934 C   0  0  0  0  0  0  0  0  0  0  0  0
    2.9289   48.0929   30.8703 C   0  0  0  0  0  0  0  0  0  0  0  0
    4.7657   49.5448   31.6274 C   0  0  0  0  0  0  0  0  0  0  0  0
    2.3842   48.2001   32.1426 C   0  0  0  0  0  0  0  0  0  0  0  0
    4.1698   49.6029   32.9084 C   0  0  0  0  0  0  0  0  0  0  0  0
    5.9836   50.2740   31.4092 N   0  0  0  0  0  0  0  0  0  0  0  0
    1.2219   47.6338   32.6297 O   0  0  0  0  0  0  0  0  0  0  0  0
    2.9804   48.9197   33.1196 C   0  0  0  0  0  0  0  0  0  0  0  0
    6.1020   51.1242   30.3355 O   0  0  0  0  0  0  0  0  0  0  0  0
    6.8578   50.3049   32.2998 O   0  0  0  0  0  0  0  0  0  0  0  0
    1.0809   48.0253   34.0022 C   0  0  0  0  0  0  0  0  0  0  0  0
    2.2252   48.8458   34.2742 O   0  0  0  0  0  0  0  0  0  0  0  0
    8.8126   40.1848   34.2122 O   0  0  0  0  0  0  0  0  0  0  0  0
   11.2418   40.7943   33.3694 O   0  0  0  0  0  0  0  0  0  0  0  0
   10.9179   40.6904   31.9970 C   0  0  0  0  0  0  0  0  0  0  0  0
   11.5181   39.3814   31.4408 C   0  0  0  0  0  0  0  0  0  0  0  0
   12.7497   39.0870   32.0745 O   0  0  0  0  0  0  0  0  0  0  0  0
   10.6045   38.1891   31.6655 C   0  0  0  0  0  0  0  0  0  0  0  0
   12.9344   37.6801   32.0290 C   0  0  0  0  0  0  0  0  0  0  0  0
    9.6418   38.0758   30.6441 O   0  0  0  0  0  0  0  0  0  0  0  0
   11.5741   37.0170   31.7045 C   0  0  0  0  0  0  0  0  0  0  0  0
   13.4851   37.2125   33.3241 N   0  0  0  0  0  0  0  0  0  0  0  0
   11.6078   36.3407   30.4680 O   0  0  0  0  0  0  0  0  0  0  0  0
   14.4801   36.3321   33.5727 C   0  0  0  0  0  0  0  0  0  0  0  0
   13.1140   37.6277   34.5693 C   0  0  0  0  0  0  0  0  0  0  0  0
   15.2073   35.6155   32.6739 N   0  0  0  0  0  0  0  0  0  0  0  0
   14.6758   36.2306   34.9182 C   0  0  0  0  0  0  0  0  0  0  0  0
   13.8217   37.0450   35.5785 N   0  0  0  0  0  0  0  0  0  0  0  0
   16.1639   34.7602   33.1546 C   0  0  0  0  0  0  0  0  0  0  0  0
   15.6526   35.3506   35.4130 C   0  0  0  0  0  0  0  0  0  0  0  0
   16.3794   34.6316   34.5041 N   0  0  0  0  0  0  0  0  0  0  0  0
   15.9001   35.1933   36.8089 N   0  0  0  0  0  0  0  0  0  0  0  0
    9.0118   45.4317   33.6711 H   0  0  0  0  0  0  0  0  0  0  0  0
   11.8905   45.7663   32.9475 H   0  0  0  0  0  0  0  0  0  0  0  0
   10.7256   46.9689   33.1217 H   0  0  0  0  0  0  0  0  0  0  0  0
   10.7236   44.8825   31.1558 H   0  0  0  0  0  0  0  0  0  0  0  0
    9.3426   43.8331   31.4757 H   0  0  0  0  0  0  0  0  0  0  0  0
    7.0102   44.7154   31.5816 H   0  0  0  0  0  0  0  0  0  0  0  0
   10.3460   47.1864   30.4103 H   0  0  0  0  0  0  0  0  0  0  0  0
    5.4660   46.2851   30.5143 H   0  0  0  0  0  0  0  0  0  0  0  0
    8.7932   48.7720   29.3457 H   0  0  0  0  0  0  0  0  0  0  0  0
    4.4527   47.5535   28.8181 H   0  0  0  0  0  0  0  0  0  0  0  0
    3.1089   49.4671   28.1211 H   0  0  0  0  0  0  0  0  0  0  0  0
    4.4218   50.6180   28.5647 H   0  0  0  0  0  0  0  0  0  0  0  0
    4.6737   49.4330   27.2298 H   0  0  0  0  0  0  0  0  0  0  0  0
    2.4278   47.4956   30.1188 H   0  0  0  0  0  0  0  0  0  0  0  0
    4.6133   50.1799   33.7098 H   0  0  0  0  0  0  0  0  0  0  0  0
    1.0862   47.1304   34.6593 H   0  0  0  0  0  0  0  0  0  0  0  0
    0.1479   48.6107   34.1407 H   0  0  0  0  0  0  0  0  0  0  0  0
   11.3945   41.5458   31.4722 H   0  0  0  0  0  0  0  0  0  0  0  0
    9.8290   40.7385   31.7617 H   0  0  0  0  0  0  0  0  0  0  0  0
   11.6994   39.5069   30.3484 H   0  0  0  0  0  0  0  0  0  0  0  0
   10.1090   38.2635   32.6633 H   0  0  0  0  0  0  0  0  0  0  0  0
   13.6662   37.4514   31.2224 H   0  0  0  0  0  0  0  0  0  0  0  0
    8.9009   38.6925   30.8793 H   0  0  0  0  0  0  0  0  0  0  0  0
   11.2650   36.3083   32.5087 H   0  0  0  0  0  0  0  0  0  0  0  0
   12.1372   35.5140   30.6163 H   0  0  0  0  0  0  0  0  0  0  0  0
   12.3297   38.3529   34.7450 H   0  0  0  0  0  0  0  0  0  0  0  0
   16.7558   34.1781   32.4619 H   0  0  0  0  0  0  0  0  0  0  0  0
   15.3533   35.7360   37.5138 H   0  0  0  0  0  0  0  0  0  0  0  0
   16.6346   34.5300   37.1414 H   0  0  0  0  0  0  0  0  0  0  0  0
  1  2  2  0
  1  3  1  0
  3  4  1  0
  4  5  1  0
  6  1  1  0
  7  6  1  0
  6  8  1  0
  8  9  1  0
  9 10  2  0
 11  9  1  0
 10 12  1  0
 13 11  2  0
 12 14  2  0
 14 13  1  0
 14 15  1  0
 15 16  1  0
 16 17  1  0
 16 18  1  0
 18 19  2  0
 20 18  1  0
 19 21  1  0
 22 20  2  0
 20 23  1  0
 21 24  1  0
 21 25  2  0
 25 22  1  0
 23 26  1  0
 23 27  2  0
 24 28  1  0
 25 29  1  0
 28 29  1  0
  4 30  2  0
  4 31  1  0
 32 31  1  0
 32 33  1  0
 33 34  1  0
 33 35  1  0
 34 36  1  0
 35 37  1  0
 35 38  1  0
 38 36  1  0
 36 39  1  0
 38 40  1  0
 41 39  1  0
 42 39  1  0
 43 41  2  0
 41 44  1  0
 45 42  2  0
 46 43  1  0
 44 47  2  0
 44 45  1  0
 48 46  2  0
 48 47  1  0
 47 49  1  0
  6 50  1  1
  7 51  1  0
  7 52  1  0
  8 53  1  0
  8 54  1  0
 10 55  1  0
 11 56  1  0
 12 57  1  0
 13 58  1  0
 16 59  1  6
 17 60  1  0
 17 61  1  0
 17 62  1  0
 19 63  1  0
 22 64  1  0
 28 65  1  0
 28 66  1  0
 32 67  1  0
 32 68  1  0
 33 69  1  0
 35 70  1  0
 36 71  1  0
 37 72  1  0
 38 73  1  0
 40 74  1  0
 42 75  1  0
 46 76  1  0
 49 77  1  0
 49 78  1  0
M  CHG  3   5  -1  23   1  26  -1
M  END
>  <EmbedRMS>  (235) 
0.0828313456307

$$$$

     RDKit          3D

 78 83  0  0  0  0  0  0  0  0999 V2000
   10.2835   43.7662   33.8256 C   0  0  0  0  0  0  0  0  0  0  0  0
   11.4102   43.5930   34.3752 O   0  0  0  0  0  0  0  0  0  0  0  0
    9.3638   42.7255   33.7349 O   0  0  0  0  0  0  0  0  0  0  0  0
    9.8903   41.2267   34.2942 P   0  0  0  0  0  0  0  0  0  0  0  0
   10.3735   41.4561   35.8837 O   0  0  0  0  0  0  0  0  0  0  0  0
    9.9547   45.0694   33.2034 C   0  0  1  0  0  0  0  0  0  0  0  0
   11.0273   46.0321   33.4755 N   0  0  0  0  0  0  0  0  0  0  0  0
    9.7467   44.8479   31.6874 C   0  0  0  0  0  0  0  0  0  0  0  0
    8.7924   45.8404   31.0839 C   0  0  0  0  0  0  0  0  0  0  0  0
    7.4056   45.6017   31.0995 C   0  0  0  0  0  0  0  0  0  0  0  0
    9.2821   46.9879   30.4428 C   0  0  0  0  0  0  0  0  0  0  0  0
    6.5269   46.5038   30.4850 C   0  0  0  0  0  0  0  0  0  0  0  0
    8.4029   47.8906   29.8330 C   0  0  0  0  0  0  0  0  0  0  0  0
    7.0141   47.6520   29.8452 C   0  0  0  0  0  0  0  0  0  0  0  0
    6.0868   48.5182   29.2432 O   0  0  0  0  0  0  0  0  0  0  0  0
    6.4082   49.6524   28.4370 C   0  0  2  0  0  0  0  0  0  0  0  0
    5.1505   50.4929   28.2136 C   0  0  0  0  0  0  0  0  0  0  0  0
    7.0317   49.2365   27.1113 C   0  0  0  0  0  0  0  0  0  0  0  0
    8.2969   49.7804   26.7773 C   0  0  0  0  0  0  0  0  0  0  0  0
    6.3730   48.3754   26.1666 C   0  0  0  0  0  0  0  0  0  0  0  0
    8.8582   49.4593   25.5488 C   0  0  0  0  0  0  0  0  0  0  0  0
    6.9871   48.0985   24.9251 C   0  0  0  0  0  0  0  0  0  0  0  0
    5.0845   47.8020   26.4250 N   0  0  0  0  0  0  0  0  0  0  0  0
   10.0686   49.8698   25.0241 O   0  0  0  0  0  0  0  0  0  0  0  0
    8.2305   48.6552   24.6613 C   0  0  0  0  0  0  0  0  0  0  0  0
    4.1237   47.8310   25.4409 O   0  0  0  0  0  0  0  0  0  0  0  0
    4.9203   47.0437   27.4014 O   0  0  0  0  0  0  0  0  0  0  0  0
   10.2087   49.2826   23.7232 C   0  0  0  0  0  0  0  0  0  0  0  0
    9.0125   48.5153   23.5309 O   0  0  0  0  0  0  0  0  0  0  0  0
    8.8122   40.1850   34.2131 O   0  0  0  0  0  0  0  0  0  0  0  0
   11.2407   40.7939   33.3693 O   0  0  0  0  0  0  0  0  0  0  0  0
   10.9152   40.6905   31.9974 C   0  0  0  0  0  0  0  0  0  0  0  0
   11.5253   39.3886   31.4375 C   0  0  0  0  0  0  0  0  0  0  0  0
   12.7500   39.0874   32.0799 O   0  0  0  0  0  0  0  0  0  0  0  0
   10.6092   38.1926   31.6470 C   0  0  0  0  0  0  0  0  0  0  0  0
   12.9332   37.6792   32.0294 C   0  0  0  0  0  0  0  0  0  0  0  0
    9.6122   38.0895   30.6542 O   0  0  0  0  0  0  0  0  0  0  0  0
   11.5743   37.0145   31.7024 C   0  0  0  0  0  0  0  0  0  0  0  0
   13.4844   37.2107   33.3241 N   0  0  0  0  0  0  0  0  0  0  0  0
   11.6297   36.3239   30.4740 O   0  0  0  0  0  0  0  0  0  0  0  0
   14.4802   36.3313   33.5727 C   0  0  0  0  0  0  0  0  0  0  0  0
   13.1138   37.6266   34.5692 C   0  0  0  0  0  0  0  0  0  0  0  0
   15.2075   35.6149   32.6739 N   0  0  0  0  0  0  0  0  0  0  0  0
   14.6761   36.2303   34.9182 C   0  0  0  0  0  0  0  0  0  0  0  0
   13.8220   37.0447   35.5785 N   0  0  0  0  0  0  0  0  0  0  0  0
   16.1643   34.7600   33.1547 C   0  0  0  0  0  0  0  0  0  0  0  0
   15.6529   35.3505   35.4130 C   0  0  0  0  0  0  0  0  0  0  0  0
   16.3798   34.6315   34.5042 N   0  0  0  0  0  0  0  0  0  0  0  0
   15.9002   35.1932   36.8090 N   0  0  0  0  0  0  0  0  0  0  0  0
    9.0120   45.4317   33.6712 H   0  0  0  0  0  0  0  0  0  0  0  0
   11.8906   45.7659   32.9468 H   0  0  0  0  0  0  0  0  0  0  0  0
   10.7259   46.9687   33.1212 H   0  0  0  0  0  0  0  0  0  0  0  0
   10.7231   44.8813   31.1555 H   0  0  0  0  0  0  0  0  0  0  0  0
    9.3416   43.8327   31.4761 H   0  0  0  0  0  0  0  0  0  0  0  0
    7.0083   44.7171   31.5818 H   0  0  0  0  0  0  0  0  0  0  0  0
   10.3465   47.1865   30.4145 H   0  0  0  0  0  0  0  0  0  0  0  0
    5.4624   46.3072   30.5024 H   0  0  0  0  0  0  0  0  0  0  0  0
    8.8168   48.7690   29.3622 H   0  0  0  0  0  0  0  0  0  0  0  0
    7.1080   50.3009   29.0099 H   0  0  0  0  0  0  0  0  0  0  0  0
    5.3817   51.3642   27.5640 H   0  0  0  0  0  0  0  0  0  0  0  0
    4.3415   49.8962   27.7458 H   0  0  0  0  0  0  0  0  0  0  0  0
    4.7785   50.8723   29.1890 H   0  0  0  0  0  0  0  0  0  0  0  0
    8.8257   50.4446   27.4490 H   0  0  0  0  0  0  0  0  0  0  0  0
    6.5112   47.4580   24.1935 H   0  0  0  0  0  0  0  0  0  0  0  0
   11.0983   48.6190   23.6951 H   0  0  0  0  0  0  0  0  0  0  0  0
   10.2836   50.0756   22.9499 H   0  0  0  0  0  0  0  0  0  0  0  0
   11.3802   41.5529   31.4733 H   0  0  0  0  0  0  0  0  0  0  0  0
    9.8243   40.7216   31.7643 H   0  0  0  0  0  0  0  0  0  0  0  0
   11.7266   39.5311   30.3513 H   0  0  0  0  0  0  0  0  0  0  0  0
   10.1110   38.2747   32.6387 H   0  0  0  0  0  0  0  0  0  0  0  0
   13.6652   37.4519   31.2226 H   0  0  0  0  0  0  0  0  0  0  0  0
   10.0511   38.1143   29.7645 H   0  0  0  0  0  0  0  0  0  0  0  0
   11.2762   36.3141   32.5189 H   0  0  0  0  0  0  0  0  0  0  0  0
   10.8593   35.6978   30.4640 H   0  0  0  0  0  0  0  0  0  0  0  0
   12.3295   38.3518   34.7449 H   0  0  0  0  0  0  0  0  0  0  0  0
   16.7564   34.1779   32.4620 H   0  0  0  0  0  0  0  0  0  0  0  0
   16.6348   34.5300   37.1416 H   0  0  0  0  0  0  0  0  0  0  0  0
   15.3534   35.7359   37.5138 H   0  0  0  0  0  0  0  0  0  0  0  0
  1  2  2  0
  1  3  1  0
  3  4  1  0
  4  5  1  0
  6  1  1  0
  7  6  1  0
  6  8  1  0
  8  9  1  0
  9 10  2  0
 11  9  1  0
 10 12  1  0
 13 11  2  0
 12 14  2  0
 14 13  1  0
 14 15  1  0
 15 16  1  0
 16 17  1  0
 16 18  1  0
 18 19  2  0
 20 18  1  0
 19 21  1  0
 22 20  2  0
 20 23  1  0
 21 24  1  0
 21 25  2  0
 25 22  1  0
 23 26  1  0
 23 27  2  0
 24 28  1  0
 25 29  1  0
 28 29  1  0
  4 30  2  0
  4 31  1  0
 32 31  1  0
 32 33  1  0
 33 34  1  0
 33 35  1  0
 34 36  1  0
 35 37  1  0
 35 38  1  0
 38 36  1  0
 36 39  1  0
 38 40  1  0
 41 39  1  0
 42 39  1  0
 43 41  2  0
 41 44  1  0
 45 42  2  0
 46 43  1  0
 44 47  2  0
 44 45  1  0
 48 46  2  0
 48 47  1  0
 47 49  1  0
  6 50  1  1
  7 51  1  0
  7 52  1  0
  8 53  1  0
  8 54  1  0
 10 55  1  0
 11 56  1  0
 12 57  1  0
 13 58  1  0
 16 59  1  1
 17 60  1  0
 17 61  1  0
 17 62  1  0
 19 63  1  0
 22 64  1  0
 28 65  1  0
 28 66  1  0
 32 67  1  0
 32 68  1  0
 33 69  1  0
 35 70  1  0
 36 71  1  0
 37 72  1  0
 38 73  1  0
 40 74  1  0
 42 75  1  0
 46 76  1  0
 49 77  1  0
 49 78  1  0
M  CHG  3   5  -1  23   1  26  -1
M  END
>  <EmbedRMS>  (236) 
0.081834272314

$$$$

     RDKit          3D

 78 83  0  0  0  0  0  0  0  0999 V2000
   10.2839   43.7626   33.8272 C   0  0  0  0  0  0  0  0  0  0  0  0
   11.4103   43.5864   34.3765 O   0  0  0  0  0  0  0  0  0  0  0  0
    9.3633   42.7234   33.7350 O   0  0  0  0  0  0  0  0  0  0  0  0
    9.8899   41.2247   34.2940 P   0  0  0  0  0  0  0  0  0  0  0  0
   10.3724   41.4545   35.8837 O   0  0  0  0  0  0  0  0  0  0  0  0
    9.9547   45.0699   33.2059 C   0  0  1  0  0  0  0  0  0  0  0  0
   11.0197   46.0481   33.4565 N   0  0  0  0  0  0  0  0  0  0  0  0
    9.7500   44.8511   31.6916 C   0  0  0  0  0  0  0  0  0  0  0  0
    8.7940   45.8418   31.0860 C   0  0  0  0  0  0  0  0  0  0  0  0
    7.4057   45.6014   31.1013 C   0  0  0  0  0  0  0  0  0  0  0  0
    9.2834   46.9909   30.4447 C   0  0  0  0  0  0  0  0  0  0  0  0
    6.5255   46.5033   30.4869 C   0  0  0  0  0  0  0  0  0  0  0  0
    8.4017   47.8916   29.8355 C   0  0  0  0  0  0  0  0  0  0  0  0
    7.0215   47.6456   29.8442 C   0  0  0  0  0  0  0  0  0  0  0  0
    6.1418   48.5446   29.2337 O   0  0  0  0  0  0  0  0  0  0  0  0
    5.8028   48.4971   27.8439 C   0  0  2  0  0  0  0  0  0  0  0  0
    4.9345   47.2697   27.5306 C   0  0  0  0  0  0  0  0  0  0  0  0
    7.0452   48.6150   26.9660 C   0  0  0  0  0  0  0  0  0  0  0  0
    7.7726   47.4502   26.6055 C   0  0  0  0  0  0  0  0  0  0  0  0
    7.5088   49.8935   26.5034 C   0  0  0  0  0  0  0  0  0  0  0  0
    8.8740   47.5846   25.7714 C   0  0  0  0  0  0  0  0  0  0  0  0
    8.6241   49.9639   25.6383 C   0  0  0  0  0  0  0  0  0  0  0  0
    6.8884   51.1205   26.9211 N   0  0  0  0  0  0  0  0  0  0  0  0
    9.7130   46.5970   25.2922 O   0  0  0  0  0  0  0  0  0  0  0  0
    9.2770   48.7867   25.3020 C   0  0  0  0  0  0  0  0  0  0  0  0
    6.8362   52.1895   26.0565 O   0  0  0  0  0  0  0  0  0  0  0  0
    6.6047   51.3047   28.1227 O   0  0  0  0  0  0  0  0  0  0  0  0
   10.7057   47.2219   24.4672 C   0  0  0  0  0  0  0  0  0  0  0  0
   10.3903   48.6205   24.5009 O   0  0  0  0  0  0  0  0  0  0  0  0
    8.8118   40.1831   34.2121 O   0  0  0  0  0  0  0  0  0  0  0  0
   11.2415   40.7932   33.3699 O   0  0  0  0  0  0  0  0  0  0  0  0
   10.9186   40.6909   31.9972 C   0  0  0  0  0  0  0  0  0  0  0  0
   11.5172   39.3814   31.4407 C   0  0  0  0  0  0  0  0  0  0  0  0
   12.7493   39.0855   32.0727 O   0  0  0  0  0  0  0  0  0  0  0  0
   10.6023   38.1907   31.6664 C   0  0  0  0  0  0  0  0  0  0  0  0
   12.9319   37.6781   32.0281 C   0  0  0  0  0  0  0  0  0  0  0  0
    9.6392   38.0797   30.6452 O   0  0  0  0  0  0  0  0  0  0  0  0
   11.5716   37.0165   31.7055 C   0  0  0  0  0  0  0  0  0  0  0  0
   13.4846   37.2121   33.3235 N   0  0  0  0  0  0  0  0  0  0  0  0
   11.6187   36.3383   30.4694 O   0  0  0  0  0  0  0  0  0  0  0  0
   14.4801   36.3321   33.5724 C   0  0  0  0  0  0  0  0  0  0  0  0
   13.1137   37.6275   34.5688 C   0  0  0  0  0  0  0  0  0  0  0  0
   15.2073   35.6153   32.6738 N   0  0  0  0  0  0  0  0  0  0  0  0
   14.6759   36.2308   34.9179 C   0  0  0  0  0  0  0  0  0  0  0  0
   13.8216   37.0452   35.5781 N   0  0  0  0  0  0  0  0  0  0  0  0
   16.1639   34.7601   33.1546 C   0  0  0  0  0  0  0  0  0  0  0  0
   15.6526   35.3508   35.4129 C   0  0  0  0  0  0  0  0  0  0  0  0
   16.3794   34.6317   34.5041 N   0  0  0  0  0  0  0  0  0  0  0  0
   15.8999   35.1933   36.8089 N   0  0  0  0  0  0  0  0  0  0  0  0
    9.0097   45.4348   33.6664 H   0  0  0  0  0  0  0  0  0  0  0  0
   11.9347   45.6933   33.0919 H   0  0  0  0  0  0  0  0  0  0  0  0
   11.1133   46.1991   34.4878 H   0  0  0  0  0  0  0  0  0  0  0  0
   10.7302   44.8929   31.1667 H   0  0  0  0  0  0  0  0  0  0  0  0
    9.3508   43.8346   31.4754 H   0  0  0  0  0  0  0  0  0  0  0  0
    7.0093   44.7174   31.5853 H   0  0  0  0  0  0  0  0  0  0  0  0
   10.3473   47.1918   30.4167 H   0  0  0  0  0  0  0  0  0  0  0  0
    5.4602   46.3118   30.5063 H   0  0  0  0  0  0  0  0  0  0  0  0
    8.7912   48.7778   29.3508 H   0  0  0  0  0  0  0  0  0  0  0  0
    5.1411   49.3634   27.6354 H   0  0  0  0  0  0  0  0  0  0  0  0
    3.9740   47.3443   28.0836 H   0  0  0  0  0  0  0  0  0  0  0  0
    4.7105   47.2262   26.4433 H   0  0  0  0  0  0  0  0  0  0  0  0
    5.4285   46.3263   27.8388 H   0  0  0  0  0  0  0  0  0  0  0  0
    7.5002   46.4670   26.9612 H   0  0  0  0  0  0  0  0  0  0  0  0
    8.9924   50.9122   25.2686 H   0  0  0  0  0  0  0  0  0  0  0  0
   11.7187   47.0474   24.8865 H   0  0  0  0  0  0  0  0  0  0  0  0
   10.6378   46.8386   23.4275 H   0  0  0  0  0  0  0  0  0  0  0  0
   11.3972   41.5459   31.4733 H   0  0  0  0  0  0  0  0  0  0  0  0
    9.8300   40.7412   31.7609 H   0  0  0  0  0  0  0  0  0  0  0  0
   11.6974   39.5068   30.3481 H   0  0  0  0  0  0  0  0  0  0  0  0
   10.1077   38.2647   32.6645 H   0  0  0  0  0  0  0  0  0  0  0  0
   13.6622   37.4467   31.2208 H   0  0  0  0  0  0  0  0  0  0  0  0
    8.8976   38.6944   30.8831 H   0  0  0  0  0  0  0  0  0  0  0  0
   11.2807   36.3073   32.5170 H   0  0  0  0  0  0  0  0  0  0  0  0
   10.8493   35.7110   30.4585 H   0  0  0  0  0  0  0  0  0  0  0  0
   12.3289   38.3523   34.7445 H   0  0  0  0  0  0  0  0  0  0  0  0
   16.7559   34.1780   32.4620 H   0  0  0  0  0  0  0  0  0  0  0  0
   15.3533   35.7361   37.5138 H   0  0  0  0  0  0  0  0  0  0  0  0
   16.6345   34.5300   37.1413 H   0  0  0  0  0  0  0  0  0  0  0  0
  1  2  2  0
  1  3  1  0
  3  4  1  0
  4  5  1  0
  6  1  1  0
  7  6  1  0
  6  8  1  0
  8  9  1  0
  9 10  2  0
 11  9  1  0
 10 12  1  0
 13 11  2  0
 12 14  2  0
 14 13  1  0
 14 15  1  0
 15 16  1  0
 16 17  1  0
 16 18  1  0
 18 19  2  0
 20 18  1  0
 19 21  1  0
 22 20  2  0
 20 23  1  0
 21 24  1  0
 21 25  2  0
 25 22  1  0
 23 26  1  0
 23 27  2  0
 24 28  1  0
 25 29  1  0
 28 29  1  0
  4 30  2  0
  4 31  1  0
 32 31  1  0
 32 33  1  0
 33 34  1  0
 33 35  1  0
 34 36  1  0
 35 37  1  0
 35 38  1  0
 38 36  1  0
 36 39  1  0
 38 40  1  0
 41 39  1  0
 42 39  1  0
 43 41  2  0
 41 44  1  0
 45 42  2  0
 46 43  1  0
 44 47  2  0
 44 45  1  0
 48 46  2  0
 48 47  1  0
 47 49  1  0
  6 50  1  1
  7 51  1  0
  7 52  1  0
  8 53  1  0
  8 54  1  0
 10 55  1  0
 11 56  1  0
 12 57  1  0
 13 58  1  0
 16 59  1  6
 17 60  1  0
 17 61  1  0
 17 62  1  0
 19 63  1  0
 22 64  1  0
 28 65  1  0
 28 66  1  0
 32 67  1  0
 32 68  1  0
 33 69  1  0
 35 70  1  0
 36 71  1  0
 37 72  1  0
 38 73  1  0
 40 74  1  0
 42 75  1  0
 46 76  1  0
 49 77  1  0
 49 78  1  0
M  CHG  3   5  -1  23   1  26  -1
M  END
>  <EmbedRMS>  (237) 
0.0839508849166

$$$$

     RDKit          3D

 78 83  0  0  0  0  0  0  0  0999 V2000
   10.2804   43.7664   33.8249 C   0  0  0  0  0  0  0  0  0  0  0  0
   11.4111   43.5918   34.3667 O   0  0  0  0  0  0  0  0  0  0  0  0
    9.3619   42.7249   33.7344 O   0  0  0  0  0  0  0  0  0  0  0  0
    9.8903   41.2265   34.2931 P   0  0  0  0  0  0  0  0  0  0  0  0
   10.3742   41.4563   35.8824 O   0  0  0  0  0  0  0  0  0  0  0  0
    9.9460   45.0736   33.2112 C   0  0  1  0  0  0  0  0  0  0  0  0
   11.0267   46.0292   33.4709 N   0  0  0  0  0  0  0  0  0  0  0  0
    9.7541   44.8541   31.6949 C   0  0  0  0  0  0  0  0  0  0  0  0
    8.7960   45.8413   31.0850 C   0  0  0  0  0  0  0  0  0  0  0  0
    7.4097   45.6005   31.1010 C   0  0  0  0  0  0  0  0  0  0  0  0
    9.2823   46.9876   30.4401 C   0  0  0  0  0  0  0  0  0  0  0  0
    6.5264   46.4990   30.4864 C   0  0  0  0  0  0  0  0  0  0  0  0
    8.3993   47.8863   29.8315 C   0  0  0  0  0  0  0  0  0  0  0  0
    7.0170   47.6557   29.8452 C   0  0  0  0  0  0  0  0  0  0  0  0
    6.1919   48.5965   29.2014 O   0  0  0  0  0  0  0  0  0  0  0  0
    4.7613   48.5859   29.1022 C   0  0  2  0  0  0  0  0  0  0  0  0
    4.1359   48.9185   30.4662 C   0  0  0  0  0  0  0  0  0  0  0  0
    4.2532   47.3213   28.4069 C   0  0  0  0  0  0  0  0  0  0  0  0
    3.2081   46.5446   28.9785 C   0  0  0  0  0  0  0  0  0  0  0  0
    4.8444   46.8802   27.1716 C   0  0  0  0  0  0  0  0  0  0  0  0
    2.8287   45.3683   28.3467 C   0  0  0  0  0  0  0  0  0  0  0  0
    4.4243   45.6648   26.5861 C   0  0  0  0  0  0  0  0  0  0  0  0
    5.8718   47.6360   26.5078 N   0  0  0  0  0  0  0  0  0  0  0  0
    1.8586   44.4627   28.7314 O   0  0  0  0  0  0  0  0  0  0  0  0
    3.4139   44.9445   27.2049 C   0  0  0  0  0  0  0  0  0  0  0  0
    6.8664   46.9807   25.8190 O   0  0  0  0  0  0  0  0  0  0  0  0
    5.7673   48.8729   26.3795 O   0  0  0  0  0  0  0  0  0  0  0  0
    1.8353   43.4023   27.7664 C   0  0  0  0  0  0  0  0  0  0  0  0
    2.8441   43.7499   26.8085 O   0  0  0  0  0  0  0  0  0  0  0  0
    8.8124   40.1844   34.2129 O   0  0  0  0  0  0  0  0  0  0  0  0
   11.2404   40.7948   33.3668 O   0  0  0  0  0  0  0  0  0  0  0  0
   10.9133   40.6866   31.9952 C   0  0  0  0  0  0  0  0  0  0  0  0
   11.5166   39.3787   31.4404 C   0  0  0  0  0  0  0  0  0  0  0  0
   12.7485   39.0849   32.0735 O   0  0  0  0  0  0  0  0  0  0  0  0
   10.6038   38.1884   31.6669 C   0  0  0  0  0  0  0  0  0  0  0  0
   12.9329   37.6776   32.0284 C   0  0  0  0  0  0  0  0  0  0  0  0
    9.6373   38.0938   30.6485 O   0  0  0  0  0  0  0  0  0  0  0  0
   11.5737   37.0140   31.7055 C   0  0  0  0  0  0  0  0  0  0  0  0
   13.4853   37.2120   33.3238 N   0  0  0  0  0  0  0  0  0  0  0  0
   11.6210   36.3379   30.4684 O   0  0  0  0  0  0  0  0  0  0  0  0
   14.4804   36.3319   33.5726 C   0  0  0  0  0  0  0  0  0  0  0  0
   13.1141   37.6275   34.5689 C   0  0  0  0  0  0  0  0  0  0  0  0
   15.2075   35.6152   32.6740 N   0  0  0  0  0  0  0  0  0  0  0  0
   14.6761   36.2307   34.9181 C   0  0  0  0  0  0  0  0  0  0  0  0
   13.8218   37.0451   35.5783 N   0  0  0  0  0  0  0  0  0  0  0  0
   16.1642   34.7600   33.1548 C   0  0  0  0  0  0  0  0  0  0  0  0
   15.6528   35.3507   35.4131 C   0  0  0  0  0  0  0  0  0  0  0  0
   16.3796   34.6315   34.5042 N   0  0  0  0  0  0  0  0  0  0  0  0
   15.9001   35.1933   36.8090 N   0  0  0  0  0  0  0  0  0  0  0  0
    8.9996   45.4381   33.6722 H   0  0  0  0  0  0  0  0  0  0  0  0
   10.7765   46.9369   33.0160 H   0  0  0  0  0  0  0  0  0  0  0  0
   11.0502   46.2277   34.4983 H   0  0  0  0  0  0  0  0  0  0  0  0
   10.7413   44.9078   31.1836 H   0  0  0  0  0  0  0  0  0  0  0  0
    9.3646   43.8354   31.4710 H   0  0  0  0  0  0  0  0  0  0  0  0
    7.0158   44.7150   31.5846 H   0  0  0  0  0  0  0  0  0  0  0  0
   10.3461   47.1874   30.4052 H   0  0  0  0  0  0  0  0  0  0  0  0
    5.4742   46.2722   30.5191 H   0  0  0  0  0  0  0  0  0  0  0  0
    8.7926   48.7664   29.3387 H   0  0  0  0  0  0  0  0  0  0  0  0
    4.4793   49.4355   28.4453 H   0  0  0  0  0  0  0  0  0  0  0  0
    4.5993   49.8439   30.8693 H   0  0  0  0  0  0  0  0  0  0  0  0
    4.2938   48.1066   31.2035 H   0  0  0  0  0  0  0  0  0  0  0  0
    3.0469   49.1075   30.3548 H   0  0  0  0  0  0  0  0  0  0  0  0
    2.7100   46.8206   29.8962 H   0  0  0  0  0  0  0  0  0  0  0  0
    4.8589   45.3035   25.6630 H   0  0  0  0  0  0  0  0  0  0  0  0
    0.8412   43.3520   27.2748 H   0  0  0  0  0  0  0  0  0  0  0  0
    2.0847   42.4356   28.2519 H   0  0  0  0  0  0  0  0  0  0  0  0
   11.3826   41.5438   31.4666 H   0  0  0  0  0  0  0  0  0  0  0  0
    9.8224   40.7224   31.7629 H   0  0  0  0  0  0  0  0  0  0  0  0
   11.6979   39.5036   30.3478 H   0  0  0  0  0  0  0  0  0  0  0  0
   10.1084   38.2786   32.6627 H   0  0  0  0  0  0  0  0  0  0  0  0
   13.6638   37.4473   31.2214 H   0  0  0  0  0  0  0  0  0  0  0  0
    8.9762   37.4191   30.9532 H   0  0  0  0  0  0  0  0  0  0  0  0
   11.2821   36.3054   32.5172 H   0  0  0  0  0  0  0  0  0  0  0  0
   10.8658   35.6935   30.4652 H   0  0  0  0  0  0  0  0  0  0  0  0
   12.3293   38.3523   34.7445 H   0  0  0  0  0  0  0  0  0  0  0  0
   16.7561   34.1778   32.4621 H   0  0  0  0  0  0  0  0  0  0  0  0
   16.6346   34.5300   37.1416 H   0  0  0  0  0  0  0  0  0  0  0  0
   15.3533   35.7361   37.5138 H   0  0  0  0  0  0  0  0  0  0  0  0
  1  2  2  0
  1  3  1  0
  3  4  1  0
  4  5  1  0
  6  1  1  0
  7  6  1  0
  6  8  1  0
  8  9  1  0
  9 10  2  0
 11  9  1  0
 10 12  1  0
 13 11  2  0
 12 14  2  0
 14 13  1  0
 14 15  1  0
 15 16  1  0
 16 17  1  0
 16 18  1  0
 18 19  2  0
 20 18  1  0
 19 21  1  0
 22 20  2  0
 20 23  1  0
 21 24  1  0
 21 25  2  0
 25 22  1  0
 23 26  1  0
 23 27  2  0
 24 28  1  0
 25 29  1  0
 28 29  1  0
  4 30  2  0
  4 31  1  0
 32 31  1  0
 32 33  1  0
 33 34  1  0
 33 35  1  0
 34 36  1  0
 35 37  1  0
 35 38  1  0
 38 36  1  0
 36 39  1  0
 38 40  1  0
 41 39  1  0
 42 39  1  0
 43 41  2  0
 41 44  1  0
 45 42  2  0
 46 43  1  0
 44 47  2  0
 44 45  1  0
 48 46  2  0
 48 47  1  0
 47 49  1  0
  6 50  1  1
  7 51  1  0
  7 52  1  0
  8 53  1  0
  8 54  1  0
 10 55  1  0
 11 56  1  0
 12 57  1  0
 13 58  1  0
 16 59  1  6
 17 60  1  0
 17 61  1  0
 17 62  1  0
 19 63  1  0
 22 64  1  0
 28 65  1  0
 28 66  1  0
 32 67  1  0
 32 68  1  0
 33 69  1  0
 35 70  1  0
 36 71  1  0
 37 72  1  0
 38 73  1  0
 40 74  1  0
 42 75  1  0
 46 76  1  0
 49 77  1  0
 49 78  1  0
M  CHG  3   5  -1  23   1  26  -1
M  END
>  <EmbedRMS>  (238) 
0.0823624067108

$$$$

     RDKit          3D

 78 83  0  0  0  0  0  0  0  0999 V2000
   10.2803   43.7664   33.8246 C   0  0  0  0  0  0  0  0  0  0  0  0
   11.4109   43.5920   34.3665 O   0  0  0  0  0  0  0  0  0  0  0  0
    9.3618   42.7249   33.7343 O   0  0  0  0  0  0  0  0  0  0  0  0
    9.8900   41.2267   34.2940 P   0  0  0  0  0  0  0  0  0  0  0  0
   10.3734   41.4567   35.8833 O   0  0  0  0  0  0  0  0  0  0  0  0
    9.9457   45.0736   33.2106 C   0  0  1  0  0  0  0  0  0  0  0  0
   11.0265   46.0292   33.4702 N   0  0  0  0  0  0  0  0  0  0  0  0
    9.7535   44.8540   31.6942 C   0  0  0  0  0  0  0  0  0  0  0  0
    8.7953   45.8408   31.0835 C   0  0  0  0  0  0  0  0  0  0  0  0
    7.4072   45.6013   31.1026 C   0  0  0  0  0  0  0  0  0  0  0  0
    9.2830   46.9896   30.4404 C   0  0  0  0  0  0  0  0  0  0  0  0
    6.5255   46.5025   30.4889 C   0  0  0  0  0  0  0  0  0  0  0  0
    8.4001   47.8911   29.8347 C   0  0  0  0  0  0  0  0  0  0  0  0
    7.0210   47.6445   29.8416 C   0  0  0  0  0  0  0  0  0  0  0  0
    6.1553   48.5533   29.2244 O   0  0  0  0  0  0  0  0  0  0  0  0
    5.5397   48.3594   27.9433 C   0  0  2  0  0  0  0  0  0  0  0  0
    4.5554   47.1840   27.9443 C   0  0  0  0  0  0  0  0  0  0  0  0
    6.5794   48.2414   26.8325 C   0  0  0  0  0  0  0  0  0  0  0  0
    7.4245   47.1022   26.7890 C   0  0  0  0  0  0  0  0  0  0  0  0
    6.7740   49.2842   25.8655 C   0  0  0  0  0  0  0  0  0  0  0  0
    8.4357   47.0569   25.8390 C   0  0  0  0  0  0  0  0  0  0  0  0
    7.8290   49.1889   24.9301 C   0  0  0  0  0  0  0  0  0  0  0  0
    5.9040   50.4223   25.8017 N   0  0  0  0  0  0  0  0  0  0  0  0
    9.3732   46.0638   25.6303 O   0  0  0  0  0  0  0  0  0  0  0  0
    8.6331   48.0583   24.9526 C   0  0  0  0  0  0  0  0  0  0  0  0
    4.5556   50.2374   25.6006 O   0  0  0  0  0  0  0  0  0  0  0  0
    6.3857   51.5637   25.6498 O   0  0  0  0  0  0  0  0  0  0  0  0
   10.2126   46.4701   24.5409 C   0  0  0  0  0  0  0  0  0  0  0  0
    9.7047   47.7491   24.1372 O   0  0  0  0  0  0  0  0  0  0  0  0
    8.8124   40.1844   34.2133 O   0  0  0  0  0  0  0  0  0  0  0  0
   11.2405   40.7943   33.3691 O   0  0  0  0  0  0  0  0  0  0  0  0
   10.9150   40.6905   31.9972 C   0  0  0  0  0  0  0  0  0  0  0  0
   11.5252   39.3886   31.4375 C   0  0  0  0  0  0  0  0  0  0  0  0
   12.7499   39.0874   32.0799 O   0  0  0  0  0  0  0  0  0  0  0  0
   10.6092   38.1926   31.6470 C   0  0  0  0  0  0  0  0  0  0  0  0
   12.9332   37.6793   32.0294 C   0  0  0  0  0  0  0  0  0  0  0  0
    9.6121   38.0894   30.6543 O   0  0  0  0  0  0  0  0  0  0  0  0
   11.5743   37.0145   31.7024 C   0  0  0  0  0  0  0  0  0  0  0  0
   13.4844   37.2108   33.3241 N   0  0  0  0  0  0  0  0  0  0  0  0
   11.6297   36.3239   30.4741 O   0  0  0  0  0  0  0  0  0  0  0  0
   14.4802   36.3313   33.5726 C   0  0  0  0  0  0  0  0  0  0  0  0
   13.1139   37.6267   34.5693 C   0  0  0  0  0  0  0  0  0  0  0  0
   15.2074   35.6149   32.6739 N   0  0  0  0  0  0  0  0  0  0  0  0
   14.6761   36.2303   34.9181 C   0  0  0  0  0  0  0  0  0  0  0  0
   13.8220   37.0447   35.5785 N   0  0  0  0  0  0  0  0  0  0  0  0
   16.1643   34.7600   33.1546 C   0  0  0  0  0  0  0  0  0  0  0  0
   15.6529   35.3505   35.4130 C   0  0  0  0  0  0  0  0  0  0  0  0
   16.3798   34.6315   34.5041 N   0  0  0  0  0  0  0  0  0  0  0  0
   15.9003   35.1932   36.8089 N   0  0  0  0  0  0  0  0  0  0  0  0
    8.9993   45.4382   33.6716 H   0  0  0  0  0  0  0  0  0  0  0  0
   10.7764   46.9368   33.0150 H   0  0  0  0  0  0  0  0  0  0  0  0
   11.0500   46.2279   34.4976 H   0  0  0  0  0  0  0  0  0  0  0  0
    9.3636   43.8353   31.4707 H   0  0  0  0  0  0  0  0  0  0  0  0
   10.7405   44.9074   31.1827 H   0  0  0  0  0  0  0  0  0  0  0  0
    7.0116   44.7204   31.5930 H   0  0  0  0  0  0  0  0  0  0  0  0
   10.3468   47.1897   30.4069 H   0  0  0  0  0  0  0  0  0  0  0  0
    5.4607   46.3158   30.5292 H   0  0  0  0  0  0  0  0  0  0  0  0
    8.7884   48.7735   29.3422 H   0  0  0  0  0  0  0  0  0  0  0  0
    4.9198   49.2609   27.7848 H   0  0  0  0  0  0  0  0  0  0  0  0
    4.0134   47.1474   26.9752 H   0  0  0  0  0  0  0  0  0  0  0  0
    5.0710   46.2141   28.0937 H   0  0  0  0  0  0  0  0  0  0  0  0
    3.8107   47.3195   28.7570 H   0  0  0  0  0  0  0  0  0  0  0  0
    7.3178   46.2820   27.4853 H   0  0  0  0  0  0  0  0  0  0  0  0
    7.9996   49.9639   24.1938 H   0  0  0  0  0  0  0  0  0  0  0  0
   10.1337   45.7450   23.7041 H   0  0  0  0  0  0  0  0  0  0  0  0
   11.2648   46.5660   24.8819 H   0  0  0  0  0  0  0  0  0  0  0  0
    9.8241   40.7215   31.7641 H   0  0  0  0  0  0  0  0  0  0  0  0
   11.3800   41.5528   31.4729 H   0  0  0  0  0  0  0  0  0  0  0  0
   11.7266   39.5310   30.3512 H   0  0  0  0  0  0  0  0  0  0  0  0
   10.1110   38.2747   32.6387 H   0  0  0  0  0  0  0  0  0  0  0  0
   13.6651   37.4520   31.2226 H   0  0  0  0  0  0  0  0  0  0  0  0
   10.0511   38.1141   29.7645 H   0  0  0  0  0  0  0  0  0  0  0  0
   11.2762   36.3142   32.5190 H   0  0  0  0  0  0  0  0  0  0  0  0
   10.8592   35.6978   30.4641 H   0  0  0  0  0  0  0  0  0  0  0  0
   12.3295   38.3519   34.7450 H   0  0  0  0  0  0  0  0  0  0  0  0
   16.7563   34.1780   32.4619 H   0  0  0  0  0  0  0  0  0  0  0  0
   15.3535   35.7358   37.5138 H   0  0  0  0  0  0  0  0  0  0  0  0
   16.6349   34.5299   37.1415 H   0  0  0  0  0  0  0  0  0  0  0  0
  1  2  2  0
  1  3  1  0
  3  4  1  0
  4  5  1  0
  6  1  1  0
  7  6  1  0
  6  8  1  0
  8  9  1  0
  9 10  2  0
 11  9  1  0
 10 12  1  0
 13 11  2  0
 12 14  2  0
 14 13  1  0
 14 15  1  0
 15 16  1  0
 16 17  1  0
 16 18  1  0
 18 19  2  0
 20 18  1  0
 19 21  1  0
 22 20  2  0
 20 23  1  0
 21 24  1  0
 21 25  2  0
 25 22  1  0
 23 26  1  0
 23 27  2  0
 24 28  1  0
 25 29  1  0
 28 29  1  0
  4 30  2  0
  4 31  1  0
 32 31  1  0
 32 33  1  0
 33 34  1  0
 33 35  1  0
 34 36  1  0
 35 37  1  0
 35 38  1  0
 38 36  1  0
 36 39  1  0
 38 40  1  0
 41 39  1  0
 42 39  1  0
 43 41  2  0
 41 44  1  0
 45 42  2  0
 46 43  1  0
 44 47  2  0
 44 45  1  0
 48 46  2  0
 48 47  1  0
 47 49  1  0
  6 50  1  1
  7 51  1  0
  7 52  1  0
  8 53  1  0
  8 54  1  0
 10 55  1  0
 11 56  1  0
 12 57  1  0
 13 58  1  0
 16 59  1  6
 17 60  1  0
 17 61  1  0
 17 62  1  0
 19 63  1  0
 22 64  1  0
 28 65  1  0
 28 66  1  0
 32 67  1  0
 32 68  1  0
 33 69  1  0
 35 70  1  0
 36 71  1  0
 37 72  1  0
 38 73  1  0
 40 74  1  0
 42 75  1  0
 46 76  1  0
 49 77  1  0
 49 78  1  0
M  CHG  3   5  -1  23   1  26  -1
M  END
>  <EmbedRMS>  (239) 
0.0817632354418

$$$$

     RDKit          3D

 78 83  0  0  0  0  0  0  0  0999 V2000
   10.2834   43.7662   33.8252 C   0  0  0  0  0  0  0  0  0  0  0  0
   11.4101   43.5931   34.3749 O   0  0  0  0  0  0  0  0  0  0  0  0
    9.3636   42.7255   33.7347 O   0  0  0  0  0  0  0  0  0  0  0  0
    9.8905   41.2266   34.2933 P   0  0  0  0  0  0  0  0  0  0  0  0
   10.3743   41.4557   35.8827 O   0  0  0  0  0  0  0  0  0  0  0  0
    9.9545   45.0695   33.2029 C   0  0  1  0  0  0  0  0  0  0  0  0
   11.0270   46.0322   33.4754 N   0  0  0  0  0  0  0  0  0  0  0  0
    9.7468   44.8483   31.6867 C   0  0  0  0  0  0  0  0  0  0  0  0
    8.7923   45.8407   31.0829 C   0  0  0  0  0  0  0  0  0  0  0  0
    7.4041   45.6015   31.0999 C   0  0  0  0  0  0  0  0  0  0  0  0
    9.2824   46.9894   30.4413 C   0  0  0  0  0  0  0  0  0  0  0  0
    6.5243   46.5045   30.4871 C   0  0  0  0  0  0  0  0  0  0  0  0
    8.4009   47.8918   29.8344 C   0  0  0  0  0  0  0  0  0  0  0  0
    7.0206   47.6477   29.8459 C   0  0  0  0  0  0  0  0  0  0  0  0
    6.1419   48.5523   29.2427 O   0  0  0  0  0  0  0  0  0  0  0  0
    5.7646   48.4897   27.8636 C   0  0  2  0  0  0  0  0  0  0  0  0
    4.8724   47.2707   27.5876 C   0  0  0  0  0  0  0  0  0  0  0  0
    6.9834   48.5773   26.9507 C   0  0  0  0  0  0  0  0  0  0  0  0
    7.7099   47.4021   26.6242 C   0  0  0  0  0  0  0  0  0  0  0  0
    7.4200   49.8349   26.4139 C   0  0  0  0  0  0  0  0  0  0  0  0
    8.7840   47.5047   25.7508 C   0  0  0  0  0  0  0  0  0  0  0  0
    8.5099   49.8733   25.5139 C   0  0  0  0  0  0  0  0  0  0  0  0
    6.7999   51.0724   26.7991 N   0  0  0  0  0  0  0  0  0  0  0  0
    9.6156   46.5013   25.2918 O   0  0  0  0  0  0  0  0  0  0  0  0
    9.1623   48.6861   25.2132 C   0  0  0  0  0  0  0  0  0  0  0  0
    6.5522   51.3363   28.1265 O   0  0  0  0  0  0  0  0  0  0  0  0
    6.6853   51.9985   25.9699 O   0  0  0  0  0  0  0  0  0  0  0  0
   10.5768   47.0935   24.4075 C   0  0  0  0  0  0  0  0  0  0  0  0
   10.2517   48.4900   24.3863 O   0  0  0  0  0  0  0  0  0  0  0  0
    8.8122   40.1850   34.2127 O   0  0  0  0  0  0  0  0  0  0  0  0
   11.2403   40.7945   33.3669 O   0  0  0  0  0  0  0  0  0  0  0  0
   10.9126   40.6859   31.9954 C   0  0  0  0  0  0  0  0  0  0  0  0
   11.5175   39.3787   31.4405 C   0  0  0  0  0  0  0  0  0  0  0  0
   12.7491   39.0864   32.0752 O   0  0  0  0  0  0  0  0  0  0  0  0
   10.6061   38.1868   31.6656 C   0  0  0  0  0  0  0  0  0  0  0  0
   12.9356   37.6796   32.0292 C   0  0  0  0  0  0  0  0  0  0  0  0
    9.6400   38.0902   30.6470 O   0  0  0  0  0  0  0  0  0  0  0  0
   11.5766   37.0146   31.7044 C   0  0  0  0  0  0  0  0  0  0  0  0
   13.4858   37.2125   33.3244 N   0  0  0  0  0  0  0  0  0  0  0  0
   11.6102   36.3396   30.4674 O   0  0  0  0  0  0  0  0  0  0  0  0
   14.4804   36.3319   33.5730 C   0  0  0  0  0  0  0  0  0  0  0  0
   13.1143   37.6276   34.5694 C   0  0  0  0  0  0  0  0  0  0  0  0
   15.2076   35.6154   32.6742 N   0  0  0  0  0  0  0  0  0  0  0  0
   14.6759   36.2304   34.9184 C   0  0  0  0  0  0  0  0  0  0  0  0
   13.8218   37.0449   35.5787 N   0  0  0  0  0  0  0  0  0  0  0  0
   16.1641   34.7601   33.1549 C   0  0  0  0  0  0  0  0  0  0  0  0
   15.6527   35.3505   35.4132 C   0  0  0  0  0  0  0  0  0  0  0  0
   16.3795   34.6315   34.5044 N   0  0  0  0  0  0  0  0  0  0  0  0
   15.9000   35.1931   36.8091 N   0  0  0  0  0  0  0  0  0  0  0  0
    9.0119   45.4317   33.6706 H   0  0  0  0  0  0  0  0  0  0  0  0
   10.7257   46.9688   33.1208 H   0  0  0  0  0  0  0  0  0  0  0  0
   11.8904   45.7657   32.9470 H   0  0  0  0  0  0  0  0  0  0  0  0
   10.7233   44.8823   31.1548 H   0  0  0  0  0  0  0  0  0  0  0  0
    9.3420   43.8331   31.4751 H   0  0  0  0  0  0  0  0  0  0  0  0
    7.0072   44.7179   31.5843 H   0  0  0  0  0  0  0  0  0  0  0  0
   10.3465   47.1882   30.4104 H   0  0  0  0  0  0  0  0  0  0  0  0
    5.4588   46.3153   30.5101 H   0  0  0  0  0  0  0  0  0  0  0  0
    8.7904   48.7776   29.3488 H   0  0  0  0  0  0  0  0  0  0  0  0
    5.1087   49.3621   27.6632 H   0  0  0  0  0  0  0  0  0  0  0  0
    5.3669   46.3227   27.8797 H   0  0  0  0  0  0  0  0  0  0  0  0
    4.6090   47.2261   26.5093 H   0  0  0  0  0  0  0  0  0  0  0  0
    3.9335   47.3578   28.1747 H   0  0  0  0  0  0  0  0  0  0  0  0
    7.4554   46.4351   27.0339 H   0  0  0  0  0  0  0  0  0  0  0  0
    8.8586   50.8061   25.0896 H   0  0  0  0  0  0  0  0  0  0  0  0
   11.6039   46.9451   24.8019 H   0  0  0  0  0  0  0  0  0  0  0  0
   10.4789   46.6619   23.3892 H   0  0  0  0  0  0  0  0  0  0  0  0
   11.3806   41.5436   31.4665 H   0  0  0  0  0  0  0  0  0  0  0  0
    9.8216   40.7200   31.7636 H   0  0  0  0  0  0  0  0  0  0  0  0
   11.6999   39.5043   30.3482 H   0  0  0  0  0  0  0  0  0  0  0  0
   10.1085   38.2767   32.6602 H   0  0  0  0  0  0  0  0  0  0  0  0
   13.6680   37.4521   31.2229 H   0  0  0  0  0  0  0  0  0  0  0  0
    9.0016   37.3869   30.9349 H   0  0  0  0  0  0  0  0  0  0  0  0
   11.2668   36.3063   32.5084 H   0  0  0  0  0  0  0  0  0  0  0  0
   12.1390   35.5126   30.6152 H   0  0  0  0  0  0  0  0  0  0  0  0
   12.3299   38.3528   34.7451 H   0  0  0  0  0  0  0  0  0  0  0  0
   16.7560   34.1780   32.4622 H   0  0  0  0  0  0  0  0  0  0  0  0
   15.3532   35.7360   37.5139 H   0  0  0  0  0  0  0  0  0  0  0  0
   16.6346   34.5298   37.1417 H   0  0  0  0  0  0  0  0  0  0  0  0
  1  2  2  0
  1  3  1  0
  3  4  1  0
  4  5  1  0
  6  1  1  0
  7  6  1  0
  6  8  1  0
  8  9  1  0
  9 10  2  0
 11  9  1  0
 10 12  1  0
 13 11  2  0
 12 14  2  0
 14 13  1  0
 14 15  1  0
 15 16  1  0
 16 17  1  0
 16 18  1  0
 18 19  2  0
 20 18  1  0
 19 21  1  0
 22 20  2  0
 20 23  1  0
 21 24  1  0
 21 25  2  0
 25 22  1  0
 23 26  1  0
 23 27  2  0
 24 28  1  0
 25 29  1  0
 28 29  1  0
  4 30  2  0
  4 31  1  0
 32 31  1  0
 32 33  1  0
 33 34  1  0
 33 35  1  0
 34 36  1  0
 35 37  1  0
 35 38  1  0
 38 36  1  0
 36 39  1  0
 38 40  1  0
 41 39  1  0
 42 39  1  0
 43 41  2  0
 41 44  1  0
 45 42  2  0
 46 43  1  0
 44 47  2  0
 44 45  1  0
 48 46  2  0
 48 47  1  0
 47 49  1  0
  6 50  1  1
  7 51  1  0
  7 52  1  0
  8 53  1  0
  8 54  1  0
 10 55  1  0
 11 56  1  0
 12 57  1  0
 13 58  1  0
 16 59  1  6
 17 60  1  0
 17 61  1  0
 17 62  1  0
 19 63  1  0
 22 64  1  0
 28 65  1  0
 28 66  1  0
 32 67  1  0
 32 68  1  0
 33 69  1  0
 35 70  1  0
 36 71  1  0
 37 72  1  0
 38 73  1  0
 40 74  1  0
 42 75  1  0
 46 76  1  0
 49 77  1  0
 49 78  1  0
M  CHG  3   5  -1  23   1  26  -1
M  END
>  <EmbedRMS>  (240) 
0.0825454037659

$$$$

     RDKit          3D

 78 83  0  0  0  0  0  0  0  0999 V2000
   10.2836   43.7661   33.8256 C   0  0  0  0  0  0  0  0  0  0  0  0
   11.4103   43.5930   34.3753 O   0  0  0  0  0  0  0  0  0  0  0  0
    9.3640   42.7253   33.7346 O   0  0  0  0  0  0  0  0  0  0  0  0
    9.8907   41.2264   34.2938 P   0  0  0  0  0  0  0  0  0  0  0  0
   10.3732   41.4559   35.8835 O   0  0  0  0  0  0  0  0  0  0  0  0
    9.9548   45.0694   33.2035 C   0  0  1  0  0  0  0  0  0  0  0  0
   11.0273   46.0322   33.4760 N   0  0  0  0  0  0  0  0  0  0  0  0
    9.7474   44.8482   31.6875 C   0  0  0  0  0  0  0  0  0  0  0  0
    8.7931   45.8408   31.0844 C   0  0  0  0  0  0  0  0  0  0  0  0
    7.4069   45.6019   31.0994 C   0  0  0  0  0  0  0  0  0  0  0  0
    9.2816   46.9875   30.4427 C   0  0  0  0  0  0  0  0  0  0  0  0
    6.5254   46.5019   30.4851 C   0  0  0  0  0  0  0  0  0  0  0  0
    8.3997   47.8868   29.8334 C   0  0  0  0  0  0  0  0  0  0  0  0
    7.0167   47.6570   29.8438 C   0  0  0  0  0  0  0  0  0  0  0  0
    6.1969   48.6019   29.1994 O   0  0  0  0  0  0  0  0  0  0  0  0
    4.7723   48.5890   29.0434 C   0  0  2  0  0  0  0  0  0  0  0  0
    4.0815   48.8893   30.3827 C   0  0  0  0  0  0  0  0  0  0  0  0
    4.2808   47.3535   28.2886 C   0  0  0  0  0  0  0  0  0  0  0  0
    3.4168   46.4100   28.9097 C   0  0  0  0  0  0  0  0  0  0  0  0
    4.6126   47.1730   26.9028 C   0  0  0  0  0  0  0  0  0  0  0  0
    2.9562   45.3332   28.1640 C   0  0  0  0  0  0  0  0  0  0  0  0
    4.1009   46.0641   26.1923 C   0  0  0  0  0  0  0  0  0  0  0  0
    5.4144   48.1273   26.1912 N   0  0  0  0  0  0  0  0  0  0  0  0
    2.1296   44.3019   28.5668 O   0  0  0  0  0  0  0  0  0  0  0  0
    3.2845   45.1668   26.8638 C   0  0  0  0  0  0  0  0  0  0  0  0
    6.6963   48.3994   26.6057 O   0  0  0  0  0  0  0  0  0  0  0  0
    5.0529   48.5172   25.0619 O   0  0  0  0  0  0  0  0  0  0  0  0
    1.9291   43.4316   27.4448 C   0  0  0  0  0  0  0  0  0  0  0  0
    2.6835   44.0217   26.3775 O   0  0  0  0  0  0  0  0  0  0  0  0
    8.8126   40.1847   34.2121 O   0  0  0  0  0  0  0  0  0  0  0  0
   11.2420   40.7941   33.3697 O   0  0  0  0  0  0  0  0  0  0  0  0
   10.9187   40.6911   31.9971 C   0  0  0  0  0  0  0  0  0  0  0  0
   11.5172   39.3815   31.4407 C   0  0  0  0  0  0  0  0  0  0  0  0
   12.7493   39.0856   32.0728 O   0  0  0  0  0  0  0  0  0  0  0  0
   10.6023   38.1908   31.6665 C   0  0  0  0  0  0  0  0  0  0  0  0
   12.9319   37.6781   32.0281 C   0  0  0  0  0  0  0  0  0  0  0  0
    9.6392   38.0798   30.6452 O   0  0  0  0  0  0  0  0  0  0  0  0
   11.5715   37.0166   31.7056 C   0  0  0  0  0  0  0  0  0  0  0  0
   13.4846   37.2121   33.3235 N   0  0  0  0  0  0  0  0  0  0  0  0
   11.6186   36.3384   30.4695 O   0  0  0  0  0  0  0  0  0  0  0  0
   14.4801   36.3321   33.5724 C   0  0  0  0  0  0  0  0  0  0  0  0
   13.1137   37.6276   34.5687 C   0  0  0  0  0  0  0  0  0  0  0  0
   15.2073   35.6153   32.6738 N   0  0  0  0  0  0  0  0  0  0  0  0
   14.6759   36.2308   34.9179 C   0  0  0  0  0  0  0  0  0  0  0  0
   13.8216   37.0452   35.5781 N   0  0  0  0  0  0  0  0  0  0  0  0
   16.1640   34.7602   33.1546 C   0  0  0  0  0  0  0  0  0  0  0  0
   15.6526   35.3508   35.4129 C   0  0  0  0  0  0  0  0  0  0  0  0
   16.3794   34.6317   34.5041 N   0  0  0  0  0  0  0  0  0  0  0  0
   15.8999   35.1934   36.8088 N   0  0  0  0  0  0  0  0  0  0  0  0
    9.0121   45.4315   33.6711 H   0  0  0  0  0  0  0  0  0  0  0  0
   10.7260   46.9687   33.1215 H   0  0  0  0  0  0  0  0  0  0  0  0
   11.8908   45.7659   32.9477 H   0  0  0  0  0  0  0  0  0  0  0  0
    9.3426   43.8329   31.4758 H   0  0  0  0  0  0  0  0  0  0  0  0
   10.7239   44.8820   31.1559 H   0  0  0  0  0  0  0  0  0  0  0  0
    7.0111   44.7172   31.5830 H   0  0  0  0  0  0  0  0  0  0  0  0
   10.3458   47.1862   30.4105 H   0  0  0  0  0  0  0  0  0  0  0  0
    5.4753   46.2800   30.5252 H   0  0  0  0  0  0  0  0  0  0  0  0
    8.7945   48.7673   29.3423 H   0  0  0  0  0  0  0  0  0  0  0  0
    4.5185   49.4583   28.3984 H   0  0  0  0  0  0  0  0  0  0  0  0
    4.3076   48.1241   31.1506 H   0  0  0  0  0  0  0  0  0  0  0  0
    4.4355   49.8691   30.7680 H   0  0  0  0  0  0  0  0  0  0  0  0
    2.9815   48.9542   30.2412 H   0  0  0  0  0  0  0  0  0  0  0  0
    3.1068   46.4955   29.9411 H   0  0  0  0  0  0  0  0  0  0  0  0
    4.3362   45.9092   25.1470 H   0  0  0  0  0  0  0  0  0  0  0  0
    0.8524   43.3922   27.1769 H   0  0  0  0  0  0  0  0  0  0  0  0
    2.3164   42.4163   27.6722 H   0  0  0  0  0  0  0  0  0  0  0  0
    9.8300   40.7411   31.7613 H   0  0  0  0  0  0  0  0  0  0  0  0
   11.3969   41.5460   31.4729 H   0  0  0  0  0  0  0  0  0  0  0  0
   11.6975   39.5067   30.3481 H   0  0  0  0  0  0  0  0  0  0  0  0
   10.1076   38.2648   32.6645 H   0  0  0  0  0  0  0  0  0  0  0  0
   13.6621   37.4467   31.2209 H   0  0  0  0  0  0  0  0  0  0  0  0
    8.8975   38.6945   30.8831 H   0  0  0  0  0  0  0  0  0  0  0  0
   11.2805   36.3074   32.5170 H   0  0  0  0  0  0  0  0  0  0  0  0
   10.8492   35.7111   30.4586 H   0  0  0  0  0  0  0  0  0  0  0  0
   12.3290   38.3524   34.7444 H   0  0  0  0  0  0  0  0  0  0  0  0
   16.7559   34.1780   32.4619 H   0  0  0  0  0  0  0  0  0  0  0  0
   15.3531   35.7362   37.5137 H   0  0  0  0  0  0  0  0  0  0  0  0
   16.6344   34.5301   37.1414 H   0  0  0  0  0  0  0  0  0  0  0  0
  1  2  2  0
  1  3  1  0
  3  4  1  0
  4  5  1  0
  6  1  1  0
  7  6  1  0
  6  8  1  0
  8  9  1  0
  9 10  2  0
 11  9  1  0
 10 12  1  0
 13 11  2  0
 12 14  2  0
 14 13  1  0
 14 15  1  0
 15 16  1  0
 16 17  1  0
 16 18  1  0
 18 19  2  0
 20 18  1  0
 19 21  1  0
 22 20  2  0
 20 23  1  0
 21 24  1  0
 21 25  2  0
 25 22  1  0
 23 26  1  0
 23 27  2  0
 24 28  1  0
 25 29  1  0
 28 29  1  0
  4 30  2  0
  4 31  1  0
 32 31  1  0
 32 33  1  0
 33 34  1  0
 33 35  1  0
 34 36  1  0
 35 37  1  0
 35 38  1  0
 38 36  1  0
 36 39  1  0
 38 40  1  0
 41 39  1  0
 42 39  1  0
 43 41  2  0
 41 44  1  0
 45 42  2  0
 46 43  1  0
 44 47  2  0
 44 45  1  0
 48 46  2  0
 48 47  1  0
 47 49  1  0
  6 50  1  1
  7 51  1  0
  7 52  1  0
  8 53  1  0
  8 54  1  0
 10 55  1  0
 11 56  1  0
 12 57  1  0
 13 58  1  0
 16 59  1  6
 17 60  1  0
 17 61  1  0
 17 62  1  0
 19 63  1  0
 22 64  1  0
 28 65  1  0
 28 66  1  0
 32 67  1  0
 32 68  1  0
 33 69  1  0
 35 70  1  0
 36 71  1  0
 37 72  1  0
 38 73  1  0
 40 74  1  0
 42 75  1  0
 46 76  1  0
 49 77  1  0
 49 78  1  0
M  CHG  3   5  -1  23   1  26  -1
M  END
>  <EmbedRMS>  (241) 
0.0829308600244

$$$$

     RDKit          3D

 78 83  0  0  0  0  0  0  0  0999 V2000
   10.2837   43.7627   33.8272 C   0  0  0  0  0  0  0  0  0  0  0  0
   11.4102   43.5864   34.3764 O   0  0  0  0  0  0  0  0  0  0  0  0
    9.3629   42.7236   33.7351 O   0  0  0  0  0  0  0  0  0  0  0  0
    9.8896   41.2248   34.2934 P   0  0  0  0  0  0  0  0  0  0  0  0
   10.3735   41.4544   35.8828 O   0  0  0  0  0  0  0  0  0  0  0  0
    9.9547   45.0700   33.2059 C   0  0  1  0  0  0  0  0  0  0  0  0
   11.0197   46.0481   33.4565 N   0  0  0  0  0  0  0  0  0  0  0  0
    9.7499   44.8511   31.6917 C   0  0  0  0  0  0  0  0  0  0  0  0
    8.7939   45.8421   31.0865 C   0  0  0  0  0  0  0  0  0  0  0  0
    7.4056   45.6014   31.1014 C   0  0  0  0  0  0  0  0  0  0  0  0
    9.2835   46.9913   30.4453 C   0  0  0  0  0  0  0  0  0  0  0  0
    6.5253   46.5032   30.4869 C   0  0  0  0  0  0  0  0  0  0  0  0
    8.4018   47.8912   29.8349 C   0  0  0  0  0  0  0  0  0  0  0  0
    7.0216   47.6454   29.8439 C   0  0  0  0  0  0  0  0  0  0  0  0
    6.1430   48.5529   29.2470 O   0  0  0  0  0  0  0  0  0  0  0  0
    5.7809   48.5242   27.8626 C   0  0  2  0  0  0  0  0  0  0  0  0
    4.7971   47.3873   27.5664 C   0  0  0  0  0  0  0  0  0  0  0  0
    7.0087   48.5901   26.9547 C   0  0  0  0  0  0  0  0  0  0  0  0
    7.4596   49.8810   26.5801 C   0  0  0  0  0  0  0  0  0  0  0  0
    7.7820   47.4470   26.5497 C   0  0  0  0  0  0  0  0  0  0  0  0
    8.6251   49.9942   25.8335 C   0  0  0  0  0  0  0  0  0  0  0  0
    8.9626   47.6234   25.7975 C   0  0  0  0  0  0  0  0  0  0  0  0
    7.3945   46.1113   26.8741 N   0  0  0  0  0  0  0  0  0  0  0  0
    9.2390   51.1412   25.3681 O   0  0  0  0  0  0  0  0  0  0  0  0
    9.3456   48.9131   25.4600 C   0  0  0  0  0  0  0  0  0  0  0  0
    8.1656   45.3921   27.7561 O   0  0  0  0  0  0  0  0  0  0  0  0
    6.6539   45.4912   26.0841 O   0  0  0  0  0  0  0  0  0  0  0  0
   10.4205   50.7520   24.6544 C   0  0  0  0  0  0  0  0  0  0  0  0
   10.4506   49.3206   24.7377 O   0  0  0  0  0  0  0  0  0  0  0  0
    8.8114   40.1834   34.2126 O   0  0  0  0  0  0  0  0  0  0  0  0
   11.2398   40.7937   33.3670 O   0  0  0  0  0  0  0  0  0  0  0  0
   10.9125   40.6857   31.9954 C   0  0  0  0  0  0  0  0  0  0  0  0
   11.5175   39.3786   31.4405 C   0  0  0  0  0  0  0  0  0  0  0  0
   12.7490   39.0863   32.0751 O   0  0  0  0  0  0  0  0  0  0  0  0
   10.6061   38.1867   31.6656 C   0  0  0  0  0  0  0  0  0  0  0  0
   12.9356   37.6796   32.0292 C   0  0  0  0  0  0  0  0  0  0  0  0
    9.6399   38.0902   30.6471 O   0  0  0  0  0  0  0  0  0  0  0  0
   11.5765   37.0145   31.7043 C   0  0  0  0  0  0  0  0  0  0  0  0
   13.4858   37.2125   33.3243 N   0  0  0  0  0  0  0  0  0  0  0  0
   11.6101   36.3396   30.4673 O   0  0  0  0  0  0  0  0  0  0  0  0
   14.4805   36.3319   33.5729 C   0  0  0  0  0  0  0  0  0  0  0  0
   13.1143   37.6276   34.5694 C   0  0  0  0  0  0  0  0  0  0  0  0
   15.2076   35.6153   32.6741 N   0  0  0  0  0  0  0  0  0  0  0  0
   14.6760   36.2304   34.9184 C   0  0  0  0  0  0  0  0  0  0  0  0
   13.8219   37.0449   35.5786 N   0  0  0  0  0  0  0  0  0  0  0  0
   16.1641   34.7600   33.1548 C   0  0  0  0  0  0  0  0  0  0  0  0
   15.6528   35.3505   35.4132 C   0  0  0  0  0  0  0  0  0  0  0  0
   16.3795   34.6314   34.5043 N   0  0  0  0  0  0  0  0  0  0  0  0
   15.9002   35.1931   36.8091 N   0  0  0  0  0  0  0  0  0  0  0  0
    9.0098   45.4349   33.6666 H   0  0  0  0  0  0  0  0  0  0  0  0
   11.9347   45.6933   33.0919 H   0  0  0  0  0  0  0  0  0  0  0  0
   11.1135   46.1991   34.4878 H   0  0  0  0  0  0  0  0  0  0  0  0
   10.7300   44.8929   31.1666 H   0  0  0  0  0  0  0  0  0  0  0  0
    9.3505   43.8347   31.4754 H   0  0  0  0  0  0  0  0  0  0  0  0
    7.0092   44.7178   31.5860 H   0  0  0  0  0  0  0  0  0  0  0  0
   10.3473   47.1921   30.4172 H   0  0  0  0  0  0  0  0  0  0  0  0
    5.4599   46.3141   30.5111 H   0  0  0  0  0  0  0  0  0  0  0  0
    8.7913   48.7775   29.3503 H   0  0  0  0  0  0  0  0  0  0  0  0
    5.1900   49.4496   27.6827 H   0  0  0  0  0  0  0  0  0  0  0  0
    5.1497   46.4223   27.9791 H   0  0  0  0  0  0  0  0  0  0  0  0
    4.6284   47.2960   26.4724 H   0  0  0  0  0  0  0  0  0  0  0  0
    3.8216   47.6086   28.0495 H   0  0  0  0  0  0  0  0  0  0  0  0
    6.9282   50.7761   26.8783 H   0  0  0  0  0  0  0  0  0  0  0  0
    9.5582   46.7756   25.4837 H   0  0  0  0  0  0  0  0  0  0  0  0
   11.3215   51.1830   25.1392 H   0  0  0  0  0  0  0  0  0  0  0  0
   10.3517   51.0727   23.5938 H   0  0  0  0  0  0  0  0  0  0  0  0
   11.3806   41.5436   31.4669 H   0  0  0  0  0  0  0  0  0  0  0  0
    9.8216   40.7200   31.7633 H   0  0  0  0  0  0  0  0  0  0  0  0
   11.6998   39.5042   30.3481 H   0  0  0  0  0  0  0  0  0  0  0  0
   10.1085   38.2766   32.6603 H   0  0  0  0  0  0  0  0  0  0  0  0
   13.6680   37.4520   31.2229 H   0  0  0  0  0  0  0  0  0  0  0  0
    9.0016   37.3867   30.9349 H   0  0  0  0  0  0  0  0  0  0  0  0
   11.2667   36.3061   32.5083 H   0  0  0  0  0  0  0  0  0  0  0  0
   12.1389   35.5126   30.6150 H   0  0  0  0  0  0  0  0  0  0  0  0
   12.3300   38.3529   34.7449 H   0  0  0  0  0  0  0  0  0  0  0  0
   16.7560   34.1779   32.4621 H   0  0  0  0  0  0  0  0  0  0  0  0
   15.3534   35.7359   37.5140 H   0  0  0  0  0  0  0  0  0  0  0  0
   16.6347   34.5298   37.1416 H   0  0  0  0  0  0  0  0  0  0  0  0
  1  2  2  0
  1  3  1  0
  3  4  1  0
  4  5  1  0
  6  1  1  0
  7  6  1  0
  6  8  1  0
  8  9  1  0
  9 10  2  0
 11  9  1  0
 10 12  1  0
 13 11  2  0
 12 14  2  0
 14 13  1  0
 14 15  1  0
 15 16  1  0
 16 17  1  0
 16 18  1  0
 18 19  2  0
 20 18  1  0
 19 21  1  0
 22 20  2  0
 20 23  1  0
 21 24  1  0
 21 25  2  0
 25 22  1  0
 23 26  1  0
 23 27  2  0
 24 28  1  0
 25 29  1  0
 28 29  1  0
  4 30  2  0
  4 31  1  0
 32 31  1  0
 32 33  1  0
 33 34  1  0
 33 35  1  0
 34 36  1  0
 35 37  1  0
 35 38  1  0
 38 36  1  0
 36 39  1  0
 38 40  1  0
 41 39  1  0
 42 39  1  0
 43 41  2  0
 41 44  1  0
 45 42  2  0
 46 43  1  0
 44 47  2  0
 44 45  1  0
 48 46  2  0
 48 47  1  0
 47 49  1  0
  6 50  1  1
  7 51  1  0
  7 52  1  0
  8 53  1  0
  8 54  1  0
 10 55  1  0
 11 56  1  0
 12 57  1  0
 13 58  1  0
 16 59  1  6
 17 60  1  0
 17 61  1  0
 17 62  1  0
 19 63  1  0
 22 64  1  0
 28 65  1  0
 28 66  1  0
 32 67  1  0
 32 68  1  0
 33 69  1  0
 35 70  1  0
 36 71  1  0
 37 72  1  0
 38 73  1  0
 40 74  1  0
 42 75  1  0
 46 76  1  0
 49 77  1  0
 49 78  1  0
M  CHG  3   5  -1  23   1  26  -1
M  END
>  <EmbedRMS>  (242) 
0.0834063999835

$$$$

     RDKit          3D

 78 83  0  0  0  0  0  0  0  0999 V2000
   10.2803   43.7664   33.8249 C   0  0  0  0  0  0  0  0  0  0  0  0
   11.4110   43.5918   34.3666 O   0  0  0  0  0  0  0  0  0  0  0  0
    9.3618   42.7250   33.7344 O   0  0  0  0  0  0  0  0  0  0  0  0
    9.8901   41.2265   34.2931 P   0  0  0  0  0  0  0  0  0  0  0  0
   10.3743   41.4563   35.8823 O   0  0  0  0  0  0  0  0  0  0  0  0
    9.9460   45.0736   33.2111 C   0  0  1  0  0  0  0  0  0  0  0  0
   11.0267   46.0292   33.4708 N   0  0  0  0  0  0  0  0  0  0  0  0
    9.7542   44.8540   31.6947 C   0  0  0  0  0  0  0  0  0  0  0  0
    8.7959   45.8409   31.0843 C   0  0  0  0  0  0  0  0  0  0  0  0
    7.4092   45.6003   31.1014 C   0  0  0  0  0  0  0  0  0  0  0  0
    9.2824   46.9879   30.4400 C   0  0  0  0  0  0  0  0  0  0  0  0
    6.5256   46.4995   30.4875 C   0  0  0  0  0  0  0  0  0  0  0  0
    8.3995   47.8876   29.8324 C   0  0  0  0  0  0  0  0  0  0  0  0
    7.0180   47.6541   29.8440 C   0  0  0  0  0  0  0  0  0  0  0  0
    6.1854   48.5954   29.2159 O   0  0  0  0  0  0  0  0  0  0  0  0
    4.7815   48.4609   28.9895 C   0  0  2  0  0  0  0  0  0  0  0  0
    4.4933   47.4205   27.8984 C   0  0  0  0  0  0  0  0  0  0  0  0
    4.1905   49.8152   28.6301 C   0  0  0  0  0  0  0  0  0  0  0  0
    3.1849   50.3460   29.4769 C   0  0  0  0  0  0  0  0  0  0  0  0
    4.5727   50.5536   27.4570 C   0  0  0  0  0  0  0  0  0  0  0  0
    2.5919   51.5538   29.1334 C   0  0  0  0  0  0  0  0  0  0  0  0
    3.9221   51.7707   27.1524 C   0  0  0  0  0  0  0  0  0  0  0  0
    5.5942   50.0879   26.5645 N   0  0  0  0  0  0  0  0  0  0  0  0
    1.6000   52.2444   29.8029 O   0  0  0  0  0  0  0  0  0  0  0  0
    2.9427   52.2343   28.0191 C   0  0  0  0  0  0  0  0  0  0  0  0
    6.8749   49.8930   27.0242 O   0  0  0  0  0  0  0  0  0  0  0  0
    5.3952   50.1124   25.3324 O   0  0  0  0  0  0  0  0  0  0  0  0
    1.3114   53.4360   29.0590 C   0  0  0  0  0  0  0  0  0  0  0  0
    2.1912   53.3901   27.9274 O   0  0  0  0  0  0  0  0  0  0  0  0
    8.8123   40.1844   34.2130 O   0  0  0  0  0  0  0  0  0  0  0  0
   11.2401   40.7949   33.3666 O   0  0  0  0  0  0  0  0  0  0  0  0
   10.9124   40.6859   31.9952 C   0  0  0  0  0  0  0  0  0  0  0  0
   11.5175   39.3786   31.4405 C   0  0  0  0  0  0  0  0  0  0  0  0
   12.7490   39.0864   32.0753 O   0  0  0  0  0  0  0  0  0  0  0  0
   10.6060   38.1867   31.6656 C   0  0  0  0  0  0  0  0  0  0  0  0
   12.9355   37.6796   32.0292 C   0  0  0  0  0  0  0  0  0  0  0  0
    9.6399   38.0903   30.6471 O   0  0  0  0  0  0  0  0  0  0  0  0
   11.5765   37.0145   31.7044 C   0  0  0  0  0  0  0  0  0  0  0  0
   13.4858   37.2125   33.3244 N   0  0  0  0  0  0  0  0  0  0  0  0
   11.6101   36.3397   30.4673 O   0  0  0  0  0  0  0  0  0  0  0  0
   14.4805   36.3319   33.5729 C   0  0  0  0  0  0  0  0  0  0  0  0
   13.1143   37.6276   34.5694 C   0  0  0  0  0  0  0  0  0  0  0  0
   15.2076   35.6153   32.6741 N   0  0  0  0  0  0  0  0  0  0  0  0
   14.6760   36.2304   34.9184 C   0  0  0  0  0  0  0  0  0  0  0  0
   13.8219   37.0449   35.5786 N   0  0  0  0  0  0  0  0  0  0  0  0
   16.1641   34.7600   33.1548 C   0  0  0  0  0  0  0  0  0  0  0  0
   15.6528   35.3505   35.4132 C   0  0  0  0  0  0  0  0  0  0  0  0
   16.3795   34.6314   34.5043 N   0  0  0  0  0  0  0  0  0  0  0  0
   15.9002   35.1931   36.8091 N   0  0  0  0  0  0  0  0  0  0  0  0
    8.9995   45.4382   33.6719 H   0  0  0  0  0  0  0  0  0  0  0  0
   10.7765   46.9369   33.0158 H   0  0  0  0  0  0  0  0  0  0  0  0
   11.0501   46.2277   34.4982 H   0  0  0  0  0  0  0  0  0  0  0  0
    9.3648   43.8353   31.4709 H   0  0  0  0  0  0  0  0  0  0  0  0
   10.7414   44.9078   31.1835 H   0  0  0  0  0  0  0  0  0  0  0  0
    7.0152   44.7169   31.5886 H   0  0  0  0  0  0  0  0  0  0  0  0
   10.3462   47.1882   30.4063 H   0  0  0  0  0  0  0  0  0  0  0  0
    5.4683   46.2845   30.5309 H   0  0  0  0  0  0  0  0  0  0  0  0
    8.7920   48.7699   29.3426 H   0  0  0  0  0  0  0  0  0  0  0  0
    4.3030   48.1049   29.9275 H   0  0  0  0  0  0  0  0  0  0  0  0
    4.7566   46.4037   28.2541 H   0  0  0  0  0  0  0  0  0  0  0  0
    3.4122   47.4238   27.6420 H   0  0  0  0  0  0  0  0  0  0  0  0
    5.0841   47.6200   26.9825 H   0  0  0  0  0  0  0  0  0  0  0  0
    2.8622   49.8293   30.3719 H   0  0  0  0  0  0  0  0  0  0  0  0
    4.1857   52.3438   26.2726 H   0  0  0  0  0  0  0  0  0  0  0  0
    0.2535   53.4319   28.7223 H   0  0  0  0  0  0  0  0  0  0  0  0
    1.5258   54.3346   29.6748 H   0  0  0  0  0  0  0  0  0  0  0  0
   11.3802   41.5436   31.4660 H   0  0  0  0  0  0  0  0  0  0  0  0
    9.8214   40.7199   31.7634 H   0  0  0  0  0  0  0  0  0  0  0  0
   11.6999   39.5040   30.3482 H   0  0  0  0  0  0  0  0  0  0  0  0
   10.1085   38.2766   32.6603 H   0  0  0  0  0  0  0  0  0  0  0  0
   13.6680   37.4521   31.2229 H   0  0  0  0  0  0  0  0  0  0  0  0
    9.0016   37.3867   30.9349 H   0  0  0  0  0  0  0  0  0  0  0  0
   11.2666   36.3062   32.5083 H   0  0  0  0  0  0  0  0  0  0  0  0
   12.1389   35.5126   30.6150 H   0  0  0  0  0  0  0  0  0  0  0  0
   12.3300   38.3529   34.7449 H   0  0  0  0  0  0  0  0  0  0  0  0
   16.7560   34.1779   32.4621 H   0  0  0  0  0  0  0  0  0  0  0  0
   16.6347   34.5298   37.1416 H   0  0  0  0  0  0  0  0  0  0  0  0
   15.3534   35.7359   37.5140 H   0  0  0  0  0  0  0  0  0  0  0  0
  1  2  2  0
  1  3  1  0
  3  4  1  0
  4  5  1  0
  6  1  1  0
  7  6  1  0
  6  8  1  0
  8  9  1  0
  9 10  2  0
 11  9  1  0
 10 12  1  0
 13 11  2  0
 12 14  2  0
 14 13  1  0
 14 15  1  0
 15 16  1  0
 16 17  1  0
 16 18  1  0
 18 19  2  0
 20 18  1  0
 19 21  1  0
 22 20  2  0
 20 23  1  0
 21 24  1  0
 21 25  2  0
 25 22  1  0
 23 26  1  0
 23 27  2  0
 24 28  1  0
 25 29  1  0
 28 29  1  0
  4 30  2  0
  4 31  1  0
 32 31  1  0
 32 33  1  0
 33 34  1  0
 33 35  1  0
 34 36  1  0
 35 37  1  0
 35 38  1  0
 38 36  1  0
 36 39  1  0
 38 40  1  0
 41 39  1  0
 42 39  1  0
 43 41  2  0
 41 44  1  0
 45 42  2  0
 46 43  1  0
 44 47  2  0
 44 45  1  0
 48 46  2  0
 48 47  1  0
 47 49  1  0
  6 50  1  1
  7 51  1  0
  7 52  1  0
  8 53  1  0
  8 54  1  0
 10 55  1  0
 11 56  1  0
 12 57  1  0
 13 58  1  0
 16 59  1  1
 17 60  1  0
 17 61  1  0
 17 62  1  0
 19 63  1  0
 22 64  1  0
 28 65  1  0
 28 66  1  0
 32 67  1  0
 32 68  1  0
 33 69  1  0
 35 70  1  0
 36 71  1  0
 37 72  1  0
 38 73  1  0
 40 74  1  0
 42 75  1  0
 46 76  1  0
 49 77  1  0
 49 78  1  0
M  CHG  3   5  -1  23   1  26  -1
M  END
>  <EmbedRMS>  (243) 
0.0822119296262

$$$$

     RDKit          3D

 78 83  0  0  0  0  0  0  0  0999 V2000
   10.2834   43.7663   33.8257 C   0  0  0  0  0  0  0  0  0  0  0  0
   11.4102   43.5930   34.3752 O   0  0  0  0  0  0  0  0  0  0  0  0
    9.3635   42.7257   33.7352 O   0  0  0  0  0  0  0  0  0  0  0  0
    9.8902   41.2269   34.2942 P   0  0  0  0  0  0  0  0  0  0  0  0
   10.3739   41.4560   35.8835 O   0  0  0  0  0  0  0  0  0  0  0  0
    9.9548   45.0696   33.2035 C   0  0  1  0  0  0  0  0  0  0  0  0
   11.0274   46.0322   33.4759 N   0  0  0  0  0  0  0  0  0  0  0  0
    9.7473   44.8483   31.6875 C   0  0  0  0  0  0  0  0  0  0  0  0
    8.7927   45.8407   31.0840 C   0  0  0  0  0  0  0  0  0  0  0  0
    7.4061   45.6013   31.0997 C   0  0  0  0  0  0  0  0  0  0  0  0
    9.2817   46.9880   30.4425 C   0  0  0  0  0  0  0  0  0  0  0  0
    6.5242   46.5014   30.4859 C   0  0  0  0  0  0  0  0  0  0  0  0
    8.4003   47.8884   29.8334 C   0  0  0  0  0  0  0  0  0  0  0  0
    7.0183   47.6560   29.8435 C   0  0  0  0  0  0  0  0  0  0  0  0
    6.1870   48.5979   29.2145 O   0  0  0  0  0  0  0  0  0  0  0  0
    4.7761   48.4759   29.0149 C   0  0  2  0  0  0  0  0  0  0  0  0
    4.4788   47.4556   27.9077 C   0  0  0  0  0  0  0  0  0  0  0  0
    4.2177   49.8378   28.6415 C   0  0  0  0  0  0  0  0  0  0  0  0
    4.7358   50.4896   27.4943 C   0  0  0  0  0  0  0  0  0  0  0  0
    3.1602   50.4653   29.3819 C   0  0  0  0  0  0  0  0  0  0  0  0
    4.1695   51.6953   27.1016 C   0  0  0  0  0  0  0  0  0  0  0  0
    2.6113   51.6837   28.9237 C   0  0  0  0  0  0  0  0  0  0  0  0
    2.6503   49.9023   30.5984 N   0  0  0  0  0  0  0  0  0  0  0  0
    4.5035   52.4898   26.0218 O   0  0  0  0  0  0  0  0  0  0  0  0
    3.1481   52.2638   27.7823 C   0  0  0  0  0  0  0  0  0  0  0  0
    1.2960   49.9193   30.8388 O   0  0  0  0  0  0  0  0  0  0  0  0
    3.4271   49.6655   31.5464 O   0  0  0  0  0  0  0  0  0  0  0  0
    3.6343   53.6306   26.0265 C   0  0  0  0  0  0  0  0  0  0  0  0
    2.7850   53.4466   27.1674 O   0  0  0  0  0  0  0  0  0  0  0  0
    8.8121   40.1852   34.2131 O   0  0  0  0  0  0  0  0  0  0  0  0
   11.2402   40.7952   33.3681 O   0  0  0  0  0  0  0  0  0  0  0  0
   10.9125   40.6877   31.9968 C   0  0  0  0  0  0  0  0  0  0  0  0
   11.5169   39.3811   31.4421 C   0  0  0  0  0  0  0  0  0  0  0  0
   12.7500   39.0881   32.0759 O   0  0  0  0  0  0  0  0  0  0  0  0
   10.6043   38.1893   31.6659 C   0  0  0  0  0  0  0  0  0  0  0  0
   12.9395   37.6814   32.0280 C   0  0  0  0  0  0  0  0  0  0  0  0
    9.6353   38.0951   30.6499 O   0  0  0  0  0  0  0  0  0  0  0  0
   11.5804   37.0191   31.6934 C   0  0  0  0  0  0  0  0  0  0  0  0
   13.4851   37.2119   33.3244 N   0  0  0  0  0  0  0  0  0  0  0  0
   11.6118   36.3189   30.4673 O   0  0  0  0  0  0  0  0  0  0  0  0
   14.4801   36.3316   33.5732 C   0  0  0  0  0  0  0  0  0  0  0  0
   13.1139   37.6277   34.5692 C   0  0  0  0  0  0  0  0  0  0  0  0
   15.2076   35.6154   32.6744 N   0  0  0  0  0  0  0  0  0  0  0  0
   14.6756   36.2303   34.9186 C   0  0  0  0  0  0  0  0  0  0  0  0
   13.8215   37.0450   35.5786 N   0  0  0  0  0  0  0  0  0  0  0  0
   16.1642   34.7602   33.1551 C   0  0  0  0  0  0  0  0  0  0  0  0
   15.6526   35.3505   35.4134 C   0  0  0  0  0  0  0  0  0  0  0  0
   16.3795   34.6316   34.5045 N   0  0  0  0  0  0  0  0  0  0  0  0
   15.9000   35.1933   36.8093 N   0  0  0  0  0  0  0  0  0  0  0  0
    9.0120   45.4318   33.6710 H   0  0  0  0  0  0  0  0  0  0  0  0
   10.7261   46.9688   33.1214 H   0  0  0  0  0  0  0  0  0  0  0  0
   11.8908   45.7659   32.9476 H   0  0  0  0  0  0  0  0  0  0  0  0
    9.3428   43.8330   31.4758 H   0  0  0  0  0  0  0  0  0  0  0  0
   10.7238   44.8824   31.1558 H   0  0  0  0  0  0  0  0  0  0  0  0
    7.0106   44.7169   31.5841 H   0  0  0  0  0  0  0  0  0  0  0  0
   10.3459   47.1868   30.4114 H   0  0  0  0  0  0  0  0  0  0  0  0
    5.4669   46.2854   30.5252 H   0  0  0  0  0  0  0  0  0  0  0  0
    8.7941   48.7707   29.3448 H   0  0  0  0  0  0  0  0  0  0  0  0
    4.3012   48.1061   29.9417 H   0  0  0  0  0  0  0  0  0  0  0  0
    5.0185   47.7147   26.9728 H   0  0  0  0  0  0  0  0  0  0  0  0
    4.7986   46.4401   28.2181 H   0  0  0  0  0  0  0  0  0  0  0  0
    3.3877   47.4250   27.7001 H   0  0  0  0  0  0  0  0  0  0  0  0
    5.5467   50.0632   26.9178 H   0  0  0  0  0  0  0  0  0  0  0  0
    1.8092   52.1759   29.4586 H   0  0  0  0  0  0  0  0  0  0  0  0
    4.2259   54.5637   26.1357 H   0  0  0  0  0  0  0  0  0  0  0  0
    3.0275   53.6550   25.0971 H   0  0  0  0  0  0  0  0  0  0  0  0
    9.8216   40.7222   31.7646 H   0  0  0  0  0  0  0  0  0  0  0  0
   11.3808   41.5456   31.4686 H   0  0  0  0  0  0  0  0  0  0  0  0
   11.6986   39.5089   30.3499 H   0  0  0  0  0  0  0  0  0  0  0  0
   10.1109   38.2737   32.6630 H   0  0  0  0  0  0  0  0  0  0  0  0
   13.6783   37.4562   31.2271 H   0  0  0  0  0  0  0  0  0  0  0  0
    9.0020   37.3860   30.9348 H   0  0  0  0  0  0  0  0  0  0  0  0
   11.2807   36.3053   32.4921 H   0  0  0  0  0  0  0  0  0  0  0  0
   11.8818   36.9600   29.7584 H   0  0  0  0  0  0  0  0  0  0  0  0
   12.3303   38.3538   34.7445 H   0  0  0  0  0  0  0  0  0  0  0  0
   16.7563   34.1783   32.4623 H   0  0  0  0  0  0  0  0  0  0  0  0
   16.6347   34.5301   37.1418 H   0  0  0  0  0  0  0  0  0  0  0  0
   15.3532   35.7359   37.5142 H   0  0  0  0  0  0  0  0  0  0  0  0
  1  2  2  0
  1  3  1  0
  3  4  1  0
  4  5  1  0
  6  1  1  0
  7  6  1  0
  6  8  1  0
  8  9  1  0
  9 10  2  0
 11  9  1  0
 10 12  1  0
 13 11  2  0
 12 14  2  0
 14 13  1  0
 14 15  1  0
 15 16  1  0
 16 17  1  0
 16 18  1  0
 18 19  2  0
 20 18  1  0
 19 21  1  0
 22 20  2  0
 20 23  1  0
 21 24  1  0
 21 25  2  0
 25 22  1  0
 23 26  1  0
 23 27  2  0
 24 28  1  0
 25 29  1  0
 28 29  1  0
  4 30  2  0
  4 31  1  0
 32 31  1  0
 32 33  1  0
 33 34  1  0
 33 35  1  0
 34 36  1  0
 35 37  1  0
 35 38  1  0
 38 36  1  0
 36 39  1  0
 38 40  1  0
 41 39  1  0
 42 39  1  0
 43 41  2  0
 41 44  1  0
 45 42  2  0
 46 43  1  0
 44 47  2  0
 44 45  1  0
 48 46  2  0
 48 47  1  0
 47 49  1  0
  6 50  1  1
  7 51  1  0
  7 52  1  0
  8 53  1  0
  8 54  1  0
 10 55  1  0
 11 56  1  0
 12 57  1  0
 13 58  1  0
 16 59  1  1
 17 60  1  0
 17 61  1  0
 17 62  1  0
 19 63  1  0
 22 64  1  0
 28 65  1  0
 28 66  1  0
 32 67  1  0
 32 68  1  0
 33 69  1  0
 35 70  1  0
 36 71  1  0
 37 72  1  0
 38 73  1  0
 40 74  1  0
 42 75  1  0
 46 76  1  0
 49 77  1  0
 49 78  1  0
M  CHG  3   5  -1  23   1  26  -1
M  END
>  <EmbedRMS>  (244) 
0.081552555021

$$$$

     RDKit          3D

 78 83  0  0  0  0  0  0  0  0999 V2000
   10.2834   43.7662   33.8256 C   0  0  0  0  0  0  0  0  0  0  0  0
   11.4102   43.5930   34.3752 O   0  0  0  0  0  0  0  0  0  0  0  0
    9.3637   42.7255   33.7349 O   0  0  0  0  0  0  0  0  0  0  0  0
    9.8902   41.2267   34.2942 P   0  0  0  0  0  0  0  0  0  0  0  0
   10.3736   41.4561   35.8836 O   0  0  0  0  0  0  0  0  0  0  0  0
    9.9548   45.0695   33.2034 C   0  0  1  0  0  0  0  0  0  0  0  0
   11.0274   46.0322   33.4758 N   0  0  0  0  0  0  0  0  0  0  0  0
    9.7472   44.8482   31.6874 C   0  0  0  0  0  0  0  0  0  0  0  0
    8.7927   45.8406   31.0839 C   0  0  0  0  0  0  0  0  0  0  0  0
    7.4061   45.6013   31.0996 C   0  0  0  0  0  0  0  0  0  0  0  0
    9.2817   46.9879   30.4425 C   0  0  0  0  0  0  0  0  0  0  0  0
    6.5241   46.5016   30.4860 C   0  0  0  0  0  0  0  0  0  0  0  0
    8.4003   47.8885   29.8337 C   0  0  0  0  0  0  0  0  0  0  0  0
    7.0185   47.6559   29.8434 C   0  0  0  0  0  0  0  0  0  0  0  0
    6.1876   48.5982   29.2146 O   0  0  0  0  0  0  0  0  0  0  0  0
    4.7842   48.4641   28.9836 C   0  0  2  0  0  0  0  0  0  0  0  0
    4.4970   47.4232   27.8924 C   0  0  0  0  0  0  0  0  0  0  0  0
    4.1931   49.8187   28.6232 C   0  0  0  0  0  0  0  0  0  0  0  0
    3.1881   50.3478   29.4719 C   0  0  0  0  0  0  0  0  0  0  0  0
    4.5714   50.5588   27.4481 C   0  0  0  0  0  0  0  0  0  0  0  0
    2.5902   51.5530   29.1287 C   0  0  0  0  0  0  0  0  0  0  0  0
    3.9139   51.7719   27.1439 C   0  0  0  0  0  0  0  0  0  0  0  0
    5.5905   50.1003   26.5480 N   0  0  0  0  0  0  0  0  0  0  0  0
    1.5976   52.2408   29.8001 O   0  0  0  0  0  0  0  0  0  0  0  0
    2.9353   52.2330   28.0126 C   0  0  0  0  0  0  0  0  0  0  0  0
    5.3967   50.2142   25.1908 O   0  0  0  0  0  0  0  0  0  0  0  0
    6.7359   49.8455   26.9709 O   0  0  0  0  0  0  0  0  0  0  0  0
    1.3026   53.4304   29.0554 C   0  0  0  0  0  0  0  0  0  0  0  0
    2.1793   53.3859   27.9214 O   0  0  0  0  0  0  0  0  0  0  0  0
    8.8121   40.1850   34.2131 O   0  0  0  0  0  0  0  0  0  0  0  0
   11.2404   40.7941   33.3690 O   0  0  0  0  0  0  0  0  0  0  0  0
   10.9143   40.6898   31.9972 C   0  0  0  0  0  0  0  0  0  0  0  0
   11.5261   39.3885   31.4376 C   0  0  0  0  0  0  0  0  0  0  0  0
   12.7504   39.0888   32.0816 O   0  0  0  0  0  0  0  0  0  0  0  0
   10.6115   38.1910   31.6460 C   0  0  0  0  0  0  0  0  0  0  0  0
   12.9357   37.6812   32.0303 C   0  0  0  0  0  0  0  0  0  0  0  0
    9.6146   38.0859   30.6534 O   0  0  0  0  0  0  0  0  0  0  0  0
   11.5769   37.0148   31.7012 C   0  0  0  0  0  0  0  0  0  0  0  0
   13.4849   37.2112   33.3247 N   0  0  0  0  0  0  0  0  0  0  0  0
   11.6193   36.3261   30.4724 O   0  0  0  0  0  0  0  0  0  0  0  0
   14.4802   36.3313   33.5730 C   0  0  0  0  0  0  0  0  0  0  0  0
   13.1141   37.6268   34.5698 C   0  0  0  0  0  0  0  0  0  0  0  0
   15.2075   35.6151   32.6741 N   0  0  0  0  0  0  0  0  0  0  0  0
   14.6761   36.2300   34.9184 C   0  0  0  0  0  0  0  0  0  0  0  0
   13.8220   37.0445   35.5789 N   0  0  0  0  0  0  0  0  0  0  0  0
   16.1642   34.7600   33.1547 C   0  0  0  0  0  0  0  0  0  0  0  0
   15.6529   35.3503   35.4131 C   0  0  0  0  0  0  0  0  0  0  0  0
   16.3798   34.6314   34.5042 N   0  0  0  0  0  0  0  0  0  0  0  0
   15.9004   35.1930   36.8090 N   0  0  0  0  0  0  0  0  0  0  0  0
    9.0120   45.4317   33.6710 H   0  0  0  0  0  0  0  0  0  0  0  0
   11.8908   45.7659   32.9475 H   0  0  0  0  0  0  0  0  0  0  0  0
   10.7261   46.9688   33.1214 H   0  0  0  0  0  0  0  0  0  0  0  0
    9.3427   43.8329   31.4757 H   0  0  0  0  0  0  0  0  0  0  0  0
   10.7237   44.8822   31.1557 H   0  0  0  0  0  0  0  0  0  0  0  0
    7.0105   44.7174   31.5847 H   0  0  0  0  0  0  0  0  0  0  0  0
   10.3459   47.1867   30.4113 H   0  0  0  0  0  0  0  0  0  0  0  0
    5.4665   46.2876   30.5279 H   0  0  0  0  0  0  0  0  0  0  0  0
    8.7941   48.7707   29.3450 H   0  0  0  0  0  0  0  0  0  0  0  0
    4.3038   48.1075   29.9203 H   0  0  0  0  0  0  0  0  0  0  0  0
    4.7692   46.4077   28.2450 H   0  0  0  0  0  0  0  0  0  0  0  0
    5.0798   47.6276   26.9726 H   0  0  0  0  0  0  0  0  0  0  0  0
    3.4144   47.4198   27.6429 H   0  0  0  0  0  0  0  0  0  0  0  0
    2.8686   49.8312   30.3682 H   0  0  0  0  0  0  0  0  0  0  0  0
    4.1724   52.3461   26.2634 H   0  0  0  0  0  0  0  0  0  0  0  0
    1.5155   54.3306   29.6693 H   0  0  0  0  0  0  0  0  0  0  0  0
    0.2438   53.4220   28.7217 H   0  0  0  0  0  0  0  0  0  0  0  0
    9.8233   40.7191   31.7647 H   0  0  0  0  0  0  0  0  0  0  0  0
   11.3779   41.5526   31.4726 H   0  0  0  0  0  0  0  0  0  0  0  0
   11.7283   39.5312   30.3515 H   0  0  0  0  0  0  0  0  0  0  0  0
   10.1127   38.2734   32.6376 H   0  0  0  0  0  0  0  0  0  0  0  0
   13.6692   37.4566   31.2242 H   0  0  0  0  0  0  0  0  0  0  0  0
   10.0533   38.1118   29.7636 H   0  0  0  0  0  0  0  0  0  0  0  0
   11.2607   36.3148   32.5102 H   0  0  0  0  0  0  0  0  0  0  0  0
   12.1496   35.5023   30.6324 H   0  0  0  0  0  0  0  0  0  0  0  0
   12.3301   38.3524   34.7455 H   0  0  0  0  0  0  0  0  0  0  0  0
   16.7562   34.1781   32.4619 H   0  0  0  0  0  0  0  0  0  0  0  0
   15.3536   35.7357   37.5139 H   0  0  0  0  0  0  0  0  0  0  0  0
   16.6351   34.5298   37.1415 H   0  0  0  0  0  0  0  0  0  0  0  0
  1  2  2  0
  1  3  1  0
  3  4  1  0
  4  5  1  0
  6  1  1  0
  7  6  1  0
  6  8  1  0
  8  9  1  0
  9 10  2  0
 11  9  1  0
 10 12  1  0
 13 11  2  0
 12 14  2  0
 14 13  1  0
 14 15  1  0
 15 16  1  0
 16 17  1  0
 16 18  1  0
 18 19  2  0
 20 18  1  0
 19 21  1  0
 22 20  2  0
 20 23  1  0
 21 24  1  0
 21 25  2  0
 25 22  1  0
 23 26  1  0
 23 27  2  0
 24 28  1  0
 25 29  1  0
 28 29  1  0
  4 30  2  0
  4 31  1  0
 32 31  1  0
 32 33  1  0
 33 34  1  0
 33 35  1  0
 34 36  1  0
 35 37  1  0
 35 38  1  0
 38 36  1  0
 36 39  1  0
 38 40  1  0
 41 39  1  0
 42 39  1  0
 43 41  2  0
 41 44  1  0
 45 42  2  0
 46 43  1  0
 44 47  2  0
 44 45  1  0
 48 46  2  0
 48 47  1  0
 47 49  1  0
  6 50  1  1
  7 51  1  0
  7 52  1  0
  8 53  1  0
  8 54  1  0
 10 55  1  0
 11 56  1  0
 12 57  1  0
 13 58  1  0
 16 59  1  1
 17 60  1  0
 17 61  1  0
 17 62  1  0
 19 63  1  0
 22 64  1  0
 28 65  1  0
 28 66  1  0
 32 67  1  0
 32 68  1  0
 33 69  1  0
 35 70  1  0
 36 71  1  0
 37 72  1  0
 38 73  1  0
 40 74  1  0
 42 75  1  0
 46 76  1  0
 49 77  1  0
 49 78  1  0
M  CHG  3   5  -1  23   1  26  -1
M  END
>  <EmbedRMS>  (245) 
0.0816131593941

$$$$

     RDKit          3D

 78 83  0  0  0  0  0  0  0  0999 V2000
   10.2802   43.7666   33.8250 C   0  0  0  0  0  0  0  0  0  0  0  0
   11.4110   43.5919   34.3666 O   0  0  0  0  0  0  0  0  0  0  0  0
    9.3616   42.7252   33.7348 O   0  0  0  0  0  0  0  0  0  0  0  0
    9.8896   41.2270   34.2945 P   0  0  0  0  0  0  0  0  0  0  0  0
   10.3731   41.4569   35.8837 O   0  0  0  0  0  0  0  0  0  0  0  0
    9.9458   45.0738   33.2112 C   0  0  1  0  0  0  0  0  0  0  0  0
   11.0265   46.0294   33.4709 N   0  0  0  0  0  0  0  0  0  0  0  0
    9.7540   44.8542   31.6949 C   0  0  0  0  0  0  0  0  0  0  0  0
    8.7957   45.8411   31.0846 C   0  0  0  0  0  0  0  0  0  0  0  0
    7.4090   45.5996   31.1007 C   0  0  0  0  0  0  0  0  0  0  0  0
    9.2825   46.9876   30.4390 C   0  0  0  0  0  0  0  0  0  0  0  0
    6.5260   46.4983   30.4860 C   0  0  0  0  0  0  0  0  0  0  0  0
    8.3998   47.8871   29.8305 C   0  0  0  0  0  0  0  0  0  0  0  0
    7.0184   47.6556   29.8484 C   0  0  0  0  0  0  0  0  0  0  0  0
    6.1790   48.5984   29.2319 O   0  0  0  0  0  0  0  0  0  0  0  0
    4.7502   48.5557   29.2303 C   0  0  2  0  0  0  0  0  0  0  0  0
    4.2006   49.5954   28.2544 C   0  0  0  0  0  0  0  0  0  0  0  0
    4.1647   48.7638   30.6198 C   0  0  0  0  0  0  0  0  0  0  0  0
    2.9636   48.0783   30.9238 C   0  0  0  0  0  0  0  0  0  0  0  0
    4.7873   49.5689   31.6374 C   0  0  0  0  0  0  0  0  0  0  0  0
    2.4414   48.1839   32.2056 C   0  0  0  0  0  0  0  0  0  0  0  0
    4.2159   49.6232   32.9288 C   0  0  0  0  0  0  0  0  0  0  0  0
    5.9891   50.3170   31.3970 N   0  0  0  0  0  0  0  0  0  0  0  0
    1.2991   47.5999   32.7186 O   0  0  0  0  0  0  0  0  0  0  0  0
    3.0432   48.9201   33.1668 C   0  0  0  0  0  0  0  0  0  0  0  0
    6.9484   50.3997   32.3798 O   0  0  0  0  0  0  0  0  0  0  0  0
    6.0778   51.0694   30.4061 O   0  0  0  0  0  0  0  0  0  0  0  0
    1.1776   47.9972   34.0912 C   0  0  0  0  0  0  0  0  0  0  0  0
    2.3119   48.8397   34.3362 O   0  0  0  0  0  0  0  0  0  0  0  0
    8.8122   40.1845   34.2135 O   0  0  0  0  0  0  0  0  0  0  0  0
   11.2401   40.7950   33.3698 O   0  0  0  0  0  0  0  0  0  0  0  0
   10.9143   40.6914   31.9981 C   0  0  0  0  0  0  0  0  0  0  0  0
   11.5269   39.3911   31.4385 C   0  0  0  0  0  0  0  0  0  0  0  0
   12.7519   39.0911   32.0837 O   0  0  0  0  0  0  0  0  0  0  0  0
   10.6113   38.1932   31.6451 C   0  0  0  0  0  0  0  0  0  0  0  0
   12.9413   37.6838   32.0297 C   0  0  0  0  0  0  0  0  0  0  0  0
    9.6064   38.0877   30.6599 O   0  0  0  0  0  0  0  0  0  0  0  0
   11.5822   37.0197   31.6877 C   0  0  0  0  0  0  0  0  0  0  0  0
   13.4840   37.2105   33.3254 N   0  0  0  0  0  0  0  0  0  0  0  0
   11.6179   36.3072   30.4690 O   0  0  0  0  0  0  0  0  0  0  0  0
   14.4797   36.3309   33.5738 C   0  0  0  0  0  0  0  0  0  0  0  0
   13.1137   37.6269   34.5702 C   0  0  0  0  0  0  0  0  0  0  0  0
   15.2074   35.6152   32.6747 N   0  0  0  0  0  0  0  0  0  0  0  0
   14.6756   36.2298   34.9190 C   0  0  0  0  0  0  0  0  0  0  0  0
   13.8217   37.0445   35.5793 N   0  0  0  0  0  0  0  0  0  0  0  0
   16.1643   34.7603   33.1551 C   0  0  0  0  0  0  0  0  0  0  0  0
   15.6528   35.3503   35.4136 C   0  0  0  0  0  0  0  0  0  0  0  0
   16.3798   34.6316   34.5046 N   0  0  0  0  0  0  0  0  0  0  0  0
   15.9004   35.1930   36.8094 N   0  0  0  0  0  0  0  0  0  0  0  0
    8.9993   45.4383   33.6720 H   0  0  0  0  0  0  0  0  0  0  0  0
   10.7761   46.9371   33.0160 H   0  0  0  0  0  0  0  0  0  0  0  0
   11.0499   46.2279   34.4983 H   0  0  0  0  0  0  0  0  0  0  0  0
   10.7413   44.9081   31.1837 H   0  0  0  0  0  0  0  0  0  0  0  0
    9.3647   43.8354   31.4711 H   0  0  0  0  0  0  0  0  0  0  0  0
    7.0150   44.7147   31.5852 H   0  0  0  0  0  0  0  0  0  0  0  0
   10.3463   47.1877   30.4051 H   0  0  0  0  0  0  0  0  0  0  0  0
    5.4678   46.2816   30.5163 H   0  0  0  0  0  0  0  0  0  0  0  0
    8.7912   48.7710   29.3430 H   0  0  0  0  0  0  0  0  0  0  0  0
    4.4399   47.5617   28.8364 H   0  0  0  0  0  0  0  0  0  0  0  0
    4.4339   50.6268   28.5856 H   0  0  0  0  0  0  0  0  0  0  0  0
    4.6445   49.4368   27.2487 H   0  0  0  0  0  0  0  0  0  0  0  0
    3.0975   49.4920   28.1697 H   0  0  0  0  0  0  0  0  0  0  0  0
    2.4593   47.4669   30.1859 H   0  0  0  0  0  0  0  0  0  0  0  0
    4.6642   50.2126   33.7184 H   0  0  0  0  0  0  0  0  0  0  0  0
    0.2370   48.5667   34.2443 H   0  0  0  0  0  0  0  0  0  0  0  0
    1.2116   47.1066   34.7532 H   0  0  0  0  0  0  0  0  0  0  0  0
   11.3774   41.5548   31.4741 H   0  0  0  0  0  0  0  0  0  0  0  0
    9.8233   40.7200   31.7652 H   0  0  0  0  0  0  0  0  0  0  0  0
   11.7312   39.5361   30.3532 H   0  0  0  0  0  0  0  0  0  0  0  0
   10.1203   38.2696   32.6410 H   0  0  0  0  0  0  0  0  0  0  0  0
   13.6850   37.4639   31.2321 H   0  0  0  0  0  0  0  0  0  0  0  0
   10.0250   38.1792   29.7654 H   0  0  0  0  0  0  0  0  0  0  0  0
   11.2757   36.3135   32.4907 H   0  0  0  0  0  0  0  0  0  0  0  0
   11.9839   36.9111   29.7708 H   0  0  0  0  0  0  0  0  0  0  0  0
   12.3308   38.3537   34.7457 H   0  0  0  0  0  0  0  0  0  0  0  0
   16.7565   34.1786   32.4623 H   0  0  0  0  0  0  0  0  0  0  0  0
   15.3535   35.7355   37.5144 H   0  0  0  0  0  0  0  0  0  0  0  0
   16.6353   34.5301   37.1419 H   0  0  0  0  0  0  0  0  0  0  0  0
  1  2  2  0
  1  3  1  0
  3  4  1  0
  4  5  1  0
  6  1  1  0
  7  6  1  0
  6  8  1  0
  8  9  1  0
  9 10  2  0
 11  9  1  0
 10 12  1  0
 13 11  2  0
 12 14  2  0
 14 13  1  0
 14 15  1  0
 15 16  1  0
 16 17  1  0
 16 18  1  0
 18 19  2  0
 20 18  1  0
 19 21  1  0
 22 20  2  0
 20 23  1  0
 21 24  1  0
 21 25  2  0
 25 22  1  0
 23 26  1  0
 23 27  2  0
 24 28  1  0
 25 29  1  0
 28 29  1  0
  4 30  2  0
  4 31  1  0
 32 31  1  0
 32 33  1  0
 33 34  1  0
 33 35  1  0
 34 36  1  0
 35 37  1  0
 35 38  1  0
 38 36  1  0
 36 39  1  0
 38 40  1  0
 41 39  1  0
 42 39  1  0
 43 41  2  0
 41 44  1  0
 45 42  2  0
 46 43  1  0
 44 47  2  0
 44 45  1  0
 48 46  2  0
 48 47  1  0
 47 49  1  0
  6 50  1  1
  7 51  1  0
  7 52  1  0
  8 53  1  0
  8 54  1  0
 10 55  1  0
 11 56  1  0
 12 57  1  0
 13 58  1  0
 16 59  1  6
 17 60  1  0
 17 61  1  0
 17 62  1  0
 19 63  1  0
 22 64  1  0
 28 65  1  0
 28 66  1  0
 32 67  1  0
 32 68  1  0
 33 69  1  0
 35 70  1  0
 36 71  1  0
 37 72  1  0
 38 73  1  0
 40 74  1  0
 42 75  1  0
 46 76  1  0
 49 77  1  0
 49 78  1  0
M  CHG  3   5  -1  23   1  26  -1
M  END
>  <EmbedRMS>  (246) 
0.0806522936684

$$$$

     RDKit          3D

 78 83  0  0  0  0  0  0  0  0999 V2000
   10.2835   43.7662   33.8256 C   0  0  0  0  0  0  0  0  0  0  0  0
   11.4102   43.5930   34.3752 O   0  0  0  0  0  0  0  0  0  0  0  0
    9.3637   42.7255   33.7349 O   0  0  0  0  0  0  0  0  0  0  0  0
    9.8903   41.2267   34.2942 P   0  0  0  0  0  0  0  0  0  0  0  0
   10.3735   41.4561   35.8837 O   0  0  0  0  0  0  0  0  0  0  0  0
    9.9547   45.0695   33.2036 C   0  0  1  0  0  0  0  0  0  0  0  0
   11.0273   46.0323   33.4760 N   0  0  0  0  0  0  0  0  0  0  0  0
    9.7471   44.8484   31.6876 C   0  0  0  0  0  0  0  0  0  0  0  0
    8.7926   45.8409   31.0844 C   0  0  0  0  0  0  0  0  0  0  0  0
    7.4059   45.6009   31.0993 C   0  0  0  0  0  0  0  0  0  0  0  0
    9.2817   46.9878   30.4417 C   0  0  0  0  0  0  0  0  0  0  0  0
    6.5248   46.5007   30.4845 C   0  0  0  0  0  0  0  0  0  0  0  0
    8.4004   47.8880   29.8320 C   0  0  0  0  0  0  0  0  0  0  0  0
    7.0186   47.6569   29.8469 C   0  0  0  0  0  0  0  0  0  0  0  0
    6.1810   48.5960   29.2231 O   0  0  0  0  0  0  0  0  0  0  0  0
    4.7516   48.5413   29.1934 C   0  0  2  0  0  0  0  0  0  0  0  0
    4.2399   49.6153   28.2363 C   0  0  0  0  0  0  0  0  0  0  0  0
    4.1661   48.7718   30.5776 C   0  0  0  0  0  0  0  0  0  0  0  0
    4.7818   49.7250   31.4267 C   0  0  0  0  0  0  0  0  0  0  0  0
    2.9569   48.1313   31.0079 C   0  0  0  0  0  0  0  0  0  0  0  0
    4.1990   49.9921   32.6584 C   0  0  0  0  0  0  0  0  0  0  0  0
    2.4010   48.4556   32.2649 C   0  0  0  0  0  0  0  0  0  0  0  0
    2.2695   47.1819   30.1821 N   0  0  0  0  0  0  0  0  0  0  0  0
    4.6247   50.8683   33.6382 O   0  0  0  0  0  0  0  0  0  0  0  0
    3.0587   49.3848   33.0596 C   0  0  0  0  0  0  0  0  0  0  0  0
    0.9031   47.2678   30.0486 O   0  0  0  0  0  0  0  0  0  0  0  0
    2.8428   46.1308   29.8308 O   0  0  0  0  0  0  0  0  0  0  0  0
    3.6916   50.8034   34.7253 C   0  0  0  0  0  0  0  0  0  0  0  0
    2.7072   49.8448   34.3141 O   0  0  0  0  0  0  0  0  0  0  0  0
    8.8121   40.1850   34.2131 O   0  0  0  0  0  0  0  0  0  0  0  0
   11.2407   40.7940   33.3694 O   0  0  0  0  0  0  0  0  0  0  0  0
   10.9151   40.6905   31.9974 C   0  0  0  0  0  0  0  0  0  0  0  0
   11.5252   39.3886   31.4375 C   0  0  0  0  0  0  0  0  0  0  0  0
   12.7500   39.0874   32.0799 O   0  0  0  0  0  0  0  0  0  0  0  0
   10.6092   38.1926   31.6470 C   0  0  0  0  0  0  0  0  0  0  0  0
   12.9332   37.6793   32.0294 C   0  0  0  0  0  0  0  0  0  0  0  0
    9.6122   38.0895   30.6542 O   0  0  0  0  0  0  0  0  0  0  0  0
   11.5743   37.0145   31.7024 C   0  0  0  0  0  0  0  0  0  0  0  0
   13.4844   37.2108   33.3241 N   0  0  0  0  0  0  0  0  0  0  0  0
   11.6297   36.3239   30.4740 O   0  0  0  0  0  0  0  0  0  0  0  0
   14.4802   36.3313   33.5726 C   0  0  0  0  0  0  0  0  0  0  0  0
   13.1138   37.6266   34.5692 C   0  0  0  0  0  0  0  0  0  0  0  0
   15.2075   35.6149   32.6739 N   0  0  0  0  0  0  0  0  0  0  0  0
   14.6761   36.2303   34.9181 C   0  0  0  0  0  0  0  0  0  0  0  0
   13.8220   37.0447   35.5785 N   0  0  0  0  0  0  0  0  0  0  0  0
   16.1643   34.7600   33.1547 C   0  0  0  0  0  0  0  0  0  0  0  0
   15.6529   35.3505   35.4130 C   0  0  0  0  0  0  0  0  0  0  0  0
   16.3798   34.6315   34.5042 N   0  0  0  0  0  0  0  0  0  0  0  0
   15.9002   35.1932   36.8090 N   0  0  0  0  0  0  0  0  0  0  0  0
    9.0120   45.4317   33.6712 H   0  0  0  0  0  0  0  0  0  0  0  0
   10.7259   46.9689   33.1216 H   0  0  0  0  0  0  0  0  0  0  0  0
   11.8907   45.7660   32.9476 H   0  0  0  0  0  0  0  0  0  0  0  0
    9.3426   43.8331   31.4758 H   0  0  0  0  0  0  0  0  0  0  0  0
   10.7236   44.8825   31.1558 H   0  0  0  0  0  0  0  0  0  0  0  0
    7.0101   44.7156   31.5817 H   0  0  0  0  0  0  0  0  0  0  0  0
   10.3460   47.1862   30.4099 H   0  0  0  0  0  0  0  0  0  0  0  0
    5.4671   46.2858   30.5131 H   0  0  0  0  0  0  0  0  0  0  0  0
    8.7934   48.7707   29.3436 H   0  0  0  0  0  0  0  0  0  0  0  0
    4.4516   47.5623   28.7725 H   0  0  0  0  0  0  0  0  0  0  0  0
    4.5510   50.6251   28.5802 H   0  0  0  0  0  0  0  0  0  0  0  0
    3.1310   49.5777   28.1739 H   0  0  0  0  0  0  0  0  0  0  0  0
    4.6556   49.4426   27.2208 H   0  0  0  0  0  0  0  0  0  0  0  0
    5.6800   50.2523   31.1314 H   0  0  0  0  0  0  0  0  0  0  0  0
    1.4884   47.9889   32.6130 H   0  0  0  0  0  0  0  0  0  0  0  0
    3.2179   51.7948   34.8845 H   0  0  0  0  0  0  0  0  0  0  0  0
    4.2012   50.4570   35.6488 H   0  0  0  0  0  0  0  0  0  0  0  0
    9.8243   40.7216   31.7643 H   0  0  0  0  0  0  0  0  0  0  0  0
   11.3802   41.5529   31.4733 H   0  0  0  0  0  0  0  0  0  0  0  0
   11.7266   39.5311   30.3513 H   0  0  0  0  0  0  0  0  0  0  0  0
   10.1110   38.2747   32.6387 H   0  0  0  0  0  0  0  0  0  0  0  0
   13.6652   37.4519   31.2226 H   0  0  0  0  0  0  0  0  0  0  0  0
   10.0511   38.1144   29.7645 H   0  0  0  0  0  0  0  0  0  0  0  0
   11.2762   36.3141   32.5189 H   0  0  0  0  0  0  0  0  0  0  0  0
   10.8593   35.6978   30.4640 H   0  0  0  0  0  0  0  0  0  0  0  0
   12.3295   38.3518   34.7449 H   0  0  0  0  0  0  0  0  0  0  0  0
   16.7564   34.1779   32.4620 H   0  0  0  0  0  0  0  0  0  0  0  0
   16.6349   34.5300   37.1415 H   0  0  0  0  0  0  0  0  0  0  0  0
   15.3534   35.7359   37.5138 H   0  0  0  0  0  0  0  0  0  0  0  0
  1  2  2  0
  1  3  1  0
  3  4  1  0
  4  5  1  0
  6  1  1  0
  7  6  1  0
  6  8  1  0
  8  9  1  0
  9 10  2  0
 11  9  1  0
 10 12  1  0
 13 11  2  0
 12 14  2  0
 14 13  1  0
 14 15  1  0
 15 16  1  0
 16 17  1  0
 16 18  1  0
 18 19  2  0
 20 18  1  0
 19 21  1  0
 22 20  2  0
 20 23  1  0
 21 24  1  0
 21 25  2  0
 25 22  1  0
 23 26  1  0
 23 27  2  0
 24 28  1  0
 25 29  1  0
 28 29  1  0
  4 30  2  0
  4 31  1  0
 32 31  1  0
 32 33  1  0
 33 34  1  0
 33 35  1  0
 34 36  1  0
 35 37  1  0
 35 38  1  0
 38 36  1  0
 36 39  1  0
 38 40  1  0
 41 39  1  0
 42 39  1  0
 43 41  2  0
 41 44  1  0
 45 42  2  0
 46 43  1  0
 44 47  2  0
 44 45  1  0
 48 46  2  0
 48 47  1  0
 47 49  1  0
  6 50  1  1
  7 51  1  0
  7 52  1  0
  8 53  1  0
  8 54  1  0
 10 55  1  0
 11 56  1  0
 12 57  1  0
 13 58  1  0
 16 59  1  6
 17 60  1  0
 17 61  1  0
 17 62  1  0
 19 63  1  0
 22 64  1  0
 28 65  1  0
 28 66  1  0
 32 67  1  0
 32 68  1  0
 33 69  1  0
 35 70  1  0
 36 71  1  0
 37 72  1  0
 38 73  1  0
 40 74  1  0
 42 75  1  0
 46 76  1  0
 49 77  1  0
 49 78  1  0
M  CHG  3   5  -1  23   1  26  -1
M  END
>  <EmbedRMS>  (247) 
0.0818108618647

$$$$

     RDKit          3D

 78 83  0  0  0  0  0  0  0  0999 V2000
   10.2858   43.7627   33.8273 C   0  0  0  0  0  0  0  0  0  0  0  0
   11.4125   43.5870   34.3754 O   0  0  0  0  0  0  0  0  0  0  0  0
    9.3657   42.7232   33.7367 O   0  0  0  0  0  0  0  0  0  0  0  0
    9.8935   41.2248   34.2954 P   0  0  0  0  0  0  0  0  0  0  0  0
   10.3769   41.4546   35.8850 O   0  0  0  0  0  0  0  0  0  0  0  0
    9.9555   45.0696   33.2066 C   0  0  1  0  0  0  0  0  0  0  0  0
   11.0201   46.0491   33.4577 N   0  0  0  0  0  0  0  0  0  0  0  0
    9.7505   44.8513   31.6919 C   0  0  0  0  0  0  0  0  0  0  0  0
    8.7931   45.8419   31.0880 C   0  0  0  0  0  0  0  0  0  0  0  0
    7.4066   45.5947   31.0903 C   0  0  0  0  0  0  0  0  0  0  0  0
    9.2807   46.9987   30.4614 C   0  0  0  0  0  0  0  0  0  0  0  0
    6.5298   46.4897   30.4621 C   0  0  0  0  0  0  0  0  0  0  0  0
    8.4003   47.9021   29.8527 C   0  0  0  0  0  0  0  0  0  0  0  0
    7.0154   47.6460   29.8352 C   0  0  0  0  0  0  0  0  0  0  0  0
    6.0941   48.4853   29.1899 O   0  0  0  0  0  0  0  0  0  0  0  0
    6.2652   49.8846   28.9631 C   0  0  2  0  0  0  0  0  0  0  0  0
    4.8998   50.5106   28.6725 C   0  0  0  0  0  0  0  0  0  0  0  0
    7.2443   50.1909   27.8392 C   0  0  0  0  0  0  0  0  0  0  0  0
    8.2587   51.1472   28.0955 C   0  0  0  0  0  0  0  0  0  0  0  0
    7.1187   49.6455   26.5146 C   0  0  0  0  0  0  0  0  0  0  0  0
    9.0894   51.5345   27.0488 C   0  0  0  0  0  0  0  0  0  0  0  0
    7.9816   50.0928   25.4839 C   0  0  0  0  0  0  0  0  0  0  0  0
    6.1208   48.6654   26.1972 N   0  0  0  0  0  0  0  0  0  0  0  0
   10.1263   52.4467   27.0712 O   0  0  0  0  0  0  0  0  0  0  0  0
    8.9545   51.0348   25.7973 C   0  0  0  0  0  0  0  0  0  0  0  0
    6.1965   47.4102   26.7542 O   0  0  0  0  0  0  0  0  0  0  0  0
    5.3756   48.8465   25.2133 O   0  0  0  0  0  0  0  0  0  0  0  0
   10.6758   52.5287   25.7482 C   0  0  0  0  0  0  0  0  0  0  0  0
    9.9016   51.6072   24.9661 O   0  0  0  0  0  0  0  0  0  0  0  0
    8.8131   40.1857   34.2138 O   0  0  0  0  0  0  0  0  0  0  0  0
   11.2436   40.7919   33.3683 O   0  0  0  0  0  0  0  0  0  0  0  0
   10.9138   40.6832   31.9973 C   0  0  0  0  0  0  0  0  0  0  0  0
   11.5159   39.3777   31.4392 C   0  0  0  0  0  0  0  0  0  0  0  0
   12.7481   39.0841   32.0715 O   0  0  0  0  0  0  0  0  0  0  0  0
   10.6017   38.1882   31.6677 C   0  0  0  0  0  0  0  0  0  0  0  0
   12.9313   37.6772   32.0283 C   0  0  0  0  0  0  0  0  0  0  0  0
    9.6339   38.0936   30.6511 O   0  0  0  0  0  0  0  0  0  0  0  0
   11.5715   37.0144   31.7063 C   0  0  0  0  0  0  0  0  0  0  0  0
   13.4843   37.2120   33.3240 N   0  0  0  0  0  0  0  0  0  0  0  0
   11.6198   36.3393   30.4686 O   0  0  0  0  0  0  0  0  0  0  0  0
   14.4781   36.3307   33.5732 C   0  0  0  0  0  0  0  0  0  0  0  0
   13.1161   37.6308   34.5687 C   0  0  0  0  0  0  0  0  0  0  0  0
   15.2063   35.6158   32.6744 N   0  0  0  0  0  0  0  0  0  0  0  0
   14.6743   36.2296   34.9185 C   0  0  0  0  0  0  0  0  0  0  0  0
   13.8238   37.0484   35.5786 N   0  0  0  0  0  0  0  0  0  0  0  0
   16.1626   34.7602   33.1540 C   0  0  0  0  0  0  0  0  0  0  0  0
   15.6518   35.3494   35.4121 C   0  0  0  0  0  0  0  0  0  0  0  0
   16.3789   34.6312   34.5031 N   0  0  0  0  0  0  0  0  0  0  0  0
   15.9019   35.1934   36.8066 N   0  0  0  0  0  0  0  0  0  0  0  0
    9.0080   45.4281   33.6700 H   0  0  0  0  0  0  0  0  0  0  0  0
   11.9371   45.7008   33.0907 H   0  0  0  0  0  0  0  0  0  0  0  0
   11.1149   46.1994   34.4889 H   0  0  0  0  0  0  0  0  0  0  0  0
   10.7299   44.8899   31.1627 H   0  0  0  0  0  0  0  0  0  0  0  0
    9.3471   43.8362   31.4786 H   0  0  0  0  0  0  0  0  0  0  0  0
    7.0057   44.7111   31.5740 H   0  0  0  0  0  0  0  0  0  0  0  0
   10.3449   47.2014   30.4402 H   0  0  0  0  0  0  0  0  0  0  0  0
    5.4673   46.2829   30.4647 H   0  0  0  0  0  0  0  0  0  0  0  0
    8.8138   48.7765   29.3784 H   0  0  0  0  0  0  0  0  0  0  0  0
    6.6188   50.3411   29.9126 H   0  0  0  0  0  0  0  0  0  0  0  0
    4.4898   50.1345   27.7114 H   0  0  0  0  0  0  0  0  0  0  0  0
    4.9881   51.6198   28.6183 H   0  0  0  0  0  0  0  0  0  0  0  0
    4.1836   50.2504   29.4896 H   0  0  0  0  0  0  0  0  0  0  0  0
    8.3893   51.5928   29.0791 H   0  0  0  0  0  0  0  0  0  0  0  0
    7.8968   49.7105   24.4725 H   0  0  0  0  0  0  0  0  0  0  0  0
   11.7423   52.2243   25.7559 H   0  0  0  0  0  0  0  0  0  0  0  0
   10.5642   53.5604   25.3509 H   0  0  0  0  0  0  0  0  0  0  0  0
    9.8232   40.7169   31.7689 H   0  0  0  0  0  0  0  0  0  0  0  0
   11.3792   41.5393   31.4662 H   0  0  0  0  0  0  0  0  0  0  0  0
   11.6967   39.5055   30.3453 H   0  0  0  0  0  0  0  0  0  0  0  0
   10.1031   38.2750   32.6629 H   0  0  0  0  0  0  0  0  0  0  0  0
   13.6624   37.4500   31.2212 H   0  0  0  0  0  0  0  0  0  0  0  0
    8.9743   37.4188   30.9590 H   0  0  0  0  0  0  0  0  0  0  0  0
   11.2796   36.3078   32.5198 H   0  0  0  0  0  0  0  0  0  0  0  0
   10.8653   35.6947   30.4631 H   0  0  0  0  0  0  0  0  0  0  0  0
   12.3301   38.3551   34.7420 H   0  0  0  0  0  0  0  0  0  0  0  0
   16.7495   34.1760   32.4595 H   0  0  0  0  0  0  0  0  0  0  0  0
   15.3531   35.7363   37.5094 H   0  0  0  0  0  0  0  0  0  0  0  0
   16.6355   34.5280   37.1374 H   0  0  0  0  0  0  0  0  0  0  0  0
  1  2  2  0
  1  3  1  0
  3  4  1  0
  4  5  1  0
  6  1  1  0
  7  6  1  0
  6  8  1  0
  8  9  1  0
  9 10  2  0
 11  9  1  0
 10 12  1  0
 13 11  2  0
 12 14  2  0
 14 13  1  0
 14 15  1  0
 15 16  1  0
 16 17  1  0
 16 18  1  0
 18 19  2  0
 20 18  1  0
 19 21  1  0
 22 20  2  0
 20 23  1  0
 21 24  1  0
 21 25  2  0
 25 22  1  0
 23 26  1  0
 23 27  2  0
 24 28  1  0
 25 29  1  0
 28 29  1  0
  4 30  2  0
  4 31  1  0
 32 31  1  0
 32 33  1  0
 33 34  1  0
 33 35  1  0
 34 36  1  0
 35 37  1  0
 35 38  1  0
 38 36  1  0
 36 39  1  0
 38 40  1  0
 41 39  1  0
 42 39  1  0
 43 41  2  0
 41 44  1  0
 45 42  2  0
 46 43  1  0
 44 47  2  0
 44 45  1  0
 48 46  2  0
 48 47  1  0
 47 49  1  0
  6 50  1  1
  7 51  1  0
  7 52  1  0
  8 53  1  0
  8 54  1  0
 10 55  1  0
 11 56  1  0
 12 57  1  0
 13 58  1  0
 16 59  1  1
 17 60  1  0
 17 61  1  0
 17 62  1  0
 19 63  1  0
 22 64  1  0
 28 65  1  0
 28 66  1  0
 32 67  1  0
 32 68  1  0
 33 69  1  0
 35 70  1  0
 36 71  1  0
 37 72  1  0
 38 73  1  0
 40 74  1  0
 42 75  1  0
 46 76  1  0
 49 77  1  0
 49 78  1  0
M  CHG  3   5  -1  23   1  26  -1
M  END
>  <EmbedRMS>  (248) 
0.0840990613784

$$$$

     RDKit          3D

 78 83  0  0  0  0  0  0  0  0999 V2000
   10.2835   43.7662   33.8256 C   0  0  0  0  0  0  0  0  0  0  0  0
   11.4102   43.5930   34.3752 O   0  0  0  0  0  0  0  0  0  0  0  0
    9.3638   42.7255   33.7348 O   0  0  0  0  0  0  0  0  0  0  0  0
    9.8903   41.2267   34.2942 P   0  0  0  0  0  0  0  0  0  0  0  0
   10.3735   41.4561   35.8836 O   0  0  0  0  0  0  0  0  0  0  0  0
    9.9548   45.0695   33.2034 C   0  0  1  0  0  0  0  0  0  0  0  0
   11.0274   46.0322   33.4758 N   0  0  0  0  0  0  0  0  0  0  0  0
    9.7472   44.8482   31.6874 C   0  0  0  0  0  0  0  0  0  0  0  0
    8.7927   45.8405   31.0839 C   0  0  0  0  0  0  0  0  0  0  0  0
    7.4060   45.6013   31.0995 C   0  0  0  0  0  0  0  0  0  0  0  0
    9.2817   46.9879   30.4425 C   0  0  0  0  0  0  0  0  0  0  0  0
    6.5241   46.5016   30.4859 C   0  0  0  0  0  0  0  0  0  0  0  0
    8.4003   47.8885   29.8338 C   0  0  0  0  0  0  0  0  0  0  0  0
    7.0184   47.6561   29.8436 C   0  0  0  0  0  0  0  0  0  0  0  0
    6.1875   48.5987   29.2154 O   0  0  0  0  0  0  0  0  0  0  0  0
    4.7838   48.4656   28.9870 C   0  0  2  0  0  0  0  0  0  0  0  0
    4.4964   47.4270   27.8940 C   0  0  0  0  0  0  0  0  0  0  0  0
    4.1942   49.8207   28.6285 C   0  0  0  0  0  0  0  0  0  0  0  0
    3.1860   50.3502   29.4730 C   0  0  0  0  0  0  0  0  0  0  0  0
    4.5804   50.5613   27.4581 C   0  0  0  0  0  0  0  0  0  0  0  0
    2.5943   51.5587   29.1299 C   0  0  0  0  0  0  0  0  0  0  0  0
    3.9311   51.7792   27.1537 C   0  0  0  0  0  0  0  0  0  0  0  0
    5.6047   50.0971   26.5681 N   0  0  0  0  0  0  0  0  0  0  0  0
    1.6002   52.2481   29.7973 O   0  0  0  0  0  0  0  0  0  0  0  0
    2.9489   52.2413   28.0180 C   0  0  0  0  0  0  0  0  0  0  0  0
    6.8846   49.9046   27.0309 O   0  0  0  0  0  0  0  0  0  0  0  0
    5.4088   50.1218   25.3355 O   0  0  0  0  0  0  0  0  0  0  0  0
    1.3143   53.4412   29.0548 C   0  0  0  0  0  0  0  0  0  0  0  0
    2.1979   53.3974   27.9261 O   0  0  0  0  0  0  0  0  0  0  0  0
    8.8121   40.1850   34.2131 O   0  0  0  0  0  0  0  0  0  0  0  0
   11.2407   40.7939   33.3693 O   0  0  0  0  0  0  0  0  0  0  0  0
   10.9151   40.6905   31.9974 C   0  0  0  0  0  0  0  0  0  0  0  0
   11.5252   39.3886   31.4375 C   0  0  0  0  0  0  0  0  0  0  0  0
   12.7500   39.0874   32.0799 O   0  0  0  0  0  0  0  0  0  0  0  0
   10.6092   38.1926   31.6470 C   0  0  0  0  0  0  0  0  0  0  0  0
   12.9332   37.6792   32.0294 C   0  0  0  0  0  0  0  0  0  0  0  0
    9.6122   38.0895   30.6542 O   0  0  0  0  0  0  0  0  0  0  0  0
   11.5743   37.0145   31.7024 C   0  0  0  0  0  0  0  0  0  0  0  0
   13.4844   37.2107   33.3241 N   0  0  0  0  0  0  0  0  0  0  0  0
   11.6297   36.3238   30.4740 O   0  0  0  0  0  0  0  0  0  0  0  0
   14.4802   36.3313   33.5727 C   0  0  0  0  0  0  0  0  0  0  0  0
   13.1138   37.6266   34.5692 C   0  0  0  0  0  0  0  0  0  0  0  0
   15.2075   35.6149   32.6739 N   0  0  0  0  0  0  0  0  0  0  0  0
   14.6761   36.2303   34.9181 C   0  0  0  0  0  0  0  0  0  0  0  0
   13.8220   37.0447   35.5785 N   0  0  0  0  0  0  0  0  0  0  0  0
   16.1643   34.7600   33.1547 C   0  0  0  0  0  0  0  0  0  0  0  0
   15.6529   35.3505   35.4130 C   0  0  0  0  0  0  0  0  0  0  0  0
   16.3798   34.6315   34.5042 N   0  0  0  0  0  0  0  0  0  0  0  0
   15.9003   35.1932   36.8090 N   0  0  0  0  0  0  0  0  0  0  0  0
    9.0121   45.4317   33.6710 H   0  0  0  0  0  0  0  0  0  0  0  0
   10.7261   46.9688   33.1214 H   0  0  0  0  0  0  0  0  0  0  0  0
   11.8908   45.7659   32.9475 H   0  0  0  0  0  0  0  0  0  0  0  0
   10.7237   44.8822   31.1556 H   0  0  0  0  0  0  0  0  0  0  0  0
    9.3427   43.8329   31.4757 H   0  0  0  0  0  0  0  0  0  0  0  0
    7.0104   44.7173   31.5845 H   0  0  0  0  0  0  0  0  0  0  0  0
   10.3459   47.1867   30.4114 H   0  0  0  0  0  0  0  0  0  0  0  0
    5.4665   46.2876   30.5278 H   0  0  0  0  0  0  0  0  0  0  0  0
    8.7941   48.7709   29.3454 H   0  0  0  0  0  0  0  0  0  0  0  0
    4.3037   48.1088   29.9238 H   0  0  0  0  0  0  0  0  0  0  0  0
    4.7606   46.4099   28.2478 H   0  0  0  0  0  0  0  0  0  0  0  0
    3.4153   47.4300   27.6377 H   0  0  0  0  0  0  0  0  0  0  0  0
    5.0869   47.6289   26.9784 H   0  0  0  0  0  0  0  0  0  0  0  0
    2.8602   49.8317   30.3658 H   0  0  0  0  0  0  0  0  0  0  0  0
    4.1978   52.3539   26.2759 H   0  0  0  0  0  0  0  0  0  0  0  0
    0.2575   53.4379   28.7146 H   0  0  0  0  0  0  0  0  0  0  0  0
    1.5267   54.3386   29.6731 H   0  0  0  0  0  0  0  0  0  0  0  0
    9.8243   40.7216   31.7643 H   0  0  0  0  0  0  0  0  0  0  0  0
   11.3802   41.5529   31.4733 H   0  0  0  0  0  0  0  0  0  0  0  0
   11.7266   39.5311   30.3513 H   0  0  0  0  0  0  0  0  0  0  0  0
   10.1110   38.2747   32.6387 H   0  0  0  0  0  0  0  0  0  0  0  0
   13.6652   37.4519   31.2226 H   0  0  0  0  0  0  0  0  0  0  0  0
   10.0511   38.1142   29.7645 H   0  0  0  0  0  0  0  0  0  0  0  0
   11.2762   36.3141   32.5190 H   0  0  0  0  0  0  0  0  0  0  0  0
   10.8593   35.6978   30.4640 H   0  0  0  0  0  0  0  0  0  0  0  0
   12.3295   38.3518   34.7450 H   0  0  0  0  0  0  0  0  0  0  0  0
   16.7564   34.1779   32.4620 H   0  0  0  0  0  0  0  0  0  0  0  0
   16.6349   34.5300   37.1416 H   0  0  0  0  0  0  0  0  0  0  0  0
   15.3534   35.7359   37.5138 H   0  0  0  0  0  0  0  0  0  0  0  0
  1  2  2  0
  1  3  1  0
  3  4  1  0
  4  5  1  0
  6  1  1  0
  7  6  1  0
  6  8  1  0
  8  9  1  0
  9 10  2  0
 11  9  1  0
 10 12  1  0
 13 11  2  0
 12 14  2  0
 14 13  1  0
 14 15  1  0
 15 16  1  0
 16 17  1  0
 16 18  1  0
 18 19  2  0
 20 18  1  0
 19 21  1  0
 22 20  2  0
 20 23  1  0
 21 24  1  0
 21 25  2  0
 25 22  1  0
 23 26  1  0
 23 27  2  0
 24 28  1  0
 25 29  1  0
 28 29  1  0
  4 30  2  0
  4 31  1  0
 32 31  1  0
 32 33  1  0
 33 34  1  0
 33 35  1  0
 34 36  1  0
 35 37  1  0
 35 38  1  0
 38 36  1  0
 36 39  1  0
 38 40  1  0
 41 39  1  0
 42 39  1  0
 43 41  2  0
 41 44  1  0
 45 42  2  0
 46 43  1  0
 44 47  2  0
 44 45  1  0
 48 46  2  0
 48 47  1  0
 47 49  1  0
  6 50  1  1
  7 51  1  0
  7 52  1  0
  8 53  1  0
  8 54  1  0
 10 55  1  0
 11 56  1  0
 12 57  1  0
 13 58  1  0
 16 59  1  1
 17 60  1  0
 17 61  1  0
 17 62  1  0
 19 63  1  0
 22 64  1  0
 28 65  1  0
 28 66  1  0
 32 67  1  0
 32 68  1  0
 33 69  1  0
 35 70  1  0
 36 71  1  0
 37 72  1  0
 38 73  1  0
 40 74  1  0
 42 75  1  0
 46 76  1  0
 49 77  1  0
 49 78  1  0
M  CHG  3   5  -1  23   1  26  -1
M  END
>  <EmbedRMS>  (249) 
0.0818057737612

$$$$

     RDKit          3D

 78 83  0  0  0  0  0  0  0  0999 V2000
   10.2838   43.7627   33.8276 C   0  0  0  0  0  0  0  0  0  0  0  0
   11.4103   43.5863   34.3766 O   0  0  0  0  0  0  0  0  0  0  0  0
    9.3628   42.7238   33.7357 O   0  0  0  0  0  0  0  0  0  0  0  0
    9.8890   41.2252   34.2949 P   0  0  0  0  0  0  0  0  0  0  0  0
   10.3724   41.4548   35.8843 O   0  0  0  0  0  0  0  0  0  0  0  0
    9.9549   45.0700   33.2063 C   0  0  1  0  0  0  0  0  0  0  0  0
   11.0198   46.0481   33.4571 N   0  0  0  0  0  0  0  0  0  0  0  0
    9.7507   44.8510   31.6922 C   0  0  0  0  0  0  0  0  0  0  0  0
    8.7946   45.8417   31.0866 C   0  0  0  0  0  0  0  0  0  0  0  0
    7.4079   45.6007   31.1006 C   0  0  0  0  0  0  0  0  0  0  0  0
    9.2827   46.9892   30.4450 C   0  0  0  0  0  0  0  0  0  0  0  0
    6.5254   46.5001   30.4860 C   0  0  0  0  0  0  0  0  0  0  0  0
    8.4008   47.8883   29.8341 C   0  0  0  0  0  0  0  0  0  0  0  0
    7.0191   47.6550   29.8438 C   0  0  0  0  0  0  0  0  0  0  0  0
    6.1868   48.5956   29.2141 O   0  0  0  0  0  0  0  0  0  0  0  0
    4.7738   48.4743   29.0212 C   0  0  2  0  0  0  0  0  0  0  0  0
    4.4778   47.4574   27.9132 C   0  0  0  0  0  0  0  0  0  0  0  0
    4.2064   49.8280   28.6369 C   0  0  0  0  0  0  0  0  0  0  0  0
    4.9080   50.6105   27.6861 C   0  0  0  0  0  0  0  0  0  0  0  0
    3.0083   50.3534   29.2288 C   0  0  0  0  0  0  0  0  0  0  0  0
    4.4315   51.8805   27.3895 C   0  0  0  0  0  0  0  0  0  0  0  0
    2.5827   51.6605   28.9005 C   0  0  0  0  0  0  0  0  0  0  0  0
    2.2066   49.5790   30.1347 N   0  0  0  0  0  0  0  0  0  0  0  0
    4.9551   52.8112   26.5128 O   0  0  0  0  0  0  0  0  0  0  0  0
    3.3217   52.3855   27.9751 C   0  0  0  0  0  0  0  0  0  0  0  0
    1.5614   50.2016   31.1783 O   0  0  0  0  0  0  0  0  0  0  0  0
    1.8952   48.4042   29.8506 O   0  0  0  0  0  0  0  0  0  0  0  0
    4.1180   53.9751   26.5515 C   0  0  0  0  0  0  0  0  0  0  0  0
    3.0871   53.6606   27.4976 O   0  0  0  0  0  0  0  0  0  0  0  0
    8.8112   40.1834   34.2131 O   0  0  0  0  0  0  0  0  0  0  0  0
   11.2398   40.7938   33.3702 O   0  0  0  0  0  0  0  0  0  0  0  0
   10.9144   40.6912   31.9983 C   0  0  0  0  0  0  0  0  0  0  0  0
   11.5270   39.3911   31.4385 C   0  0  0  0  0  0  0  0  0  0  0  0
   12.7520   39.0911   32.0836 O   0  0  0  0  0  0  0  0  0  0  0  0
   10.6113   38.1932   31.6451 C   0  0  0  0  0  0  0  0  0  0  0  0
   12.9413   37.6837   32.0297 C   0  0  0  0  0  0  0  0  0  0  0  0
    9.6064   38.0877   30.6599 O   0  0  0  0  0  0  0  0  0  0  0  0
   11.5822   37.0197   31.6876 C   0  0  0  0  0  0  0  0  0  0  0  0
   13.4840   37.2104   33.3254 N   0  0  0  0  0  0  0  0  0  0  0  0
   11.6179   36.3071   30.4690 O   0  0  0  0  0  0  0  0  0  0  0  0
   14.4797   36.3309   33.5738 C   0  0  0  0  0  0  0  0  0  0  0  0
   13.1137   37.6269   34.5702 C   0  0  0  0  0  0  0  0  0  0  0  0
   15.2074   35.6152   32.6747 N   0  0  0  0  0  0  0  0  0  0  0  0
   14.6756   36.2298   34.9190 C   0  0  0  0  0  0  0  0  0  0  0  0
   13.8217   37.0445   35.5793 N   0  0  0  0  0  0  0  0  0  0  0  0
   16.1643   34.7603   33.1551 C   0  0  0  0  0  0  0  0  0  0  0  0
   15.6528   35.3503   35.4136 C   0  0  0  0  0  0  0  0  0  0  0  0
   16.3798   34.6315   34.5046 N   0  0  0  0  0  0  0  0  0  0  0  0
   15.9004   35.1930   36.8094 N   0  0  0  0  0  0  0  0  0  0  0  0
    9.0099   45.4349   33.6668 H   0  0  0  0  0  0  0  0  0  0  0  0
   11.9350   45.6933   33.0929 H   0  0  0  0  0  0  0  0  0  0  0  0
   11.1132   46.1992   34.4884 H   0  0  0  0  0  0  0  0  0  0  0  0
   10.7311   44.8930   31.1676 H   0  0  0  0  0  0  0  0  0  0  0  0
    9.3520   43.8344   31.4758 H   0  0  0  0  0  0  0  0  0  0  0  0
    7.0130   44.7159   31.5847 H   0  0  0  0  0  0  0  0  0  0  0  0
   10.3466   47.1899   30.4159 H   0  0  0  0  0  0  0  0  0  0  0  0
    5.4680   46.2834   30.5233 H   0  0  0  0  0  0  0  0  0  0  0  0
    8.7941   48.7708   29.3455 H   0  0  0  0  0  0  0  0  0  0  0  0
    4.3173   48.1346   29.9716 H   0  0  0  0  0  0  0  0  0  0  0  0
    3.3838   47.3924   27.7326 H   0  0  0  0  0  0  0  0  0  0  0  0
    4.8409   46.4497   28.2000 H   0  0  0  0  0  0  0  0  0  0  0  0
    4.9812   47.7544   26.9685 H   0  0  0  0  0  0  0  0  0  0  0  0
    5.8076   50.2466   27.2060 H   0  0  0  0  0  0  0  0  0  0  0  0
    1.6866   52.0869   29.3326 H   0  0  0  0  0  0  0  0  0  0  0  0
    4.6997   54.8553   26.8971 H   0  0  0  0  0  0  0  0  0  0  0  0
    3.6754   54.1632   25.5509 H   0  0  0  0  0  0  0  0  0  0  0  0
   11.3780   41.5548   31.4751 H   0  0  0  0  0  0  0  0  0  0  0  0
    9.8235   40.7201   31.7651 H   0  0  0  0  0  0  0  0  0  0  0  0
   11.7311   39.5363   30.3531 H   0  0  0  0  0  0  0  0  0  0  0  0
   10.1202   38.2696   32.6410 H   0  0  0  0  0  0  0  0  0  0  0  0
   13.6850   37.4638   31.2321 H   0  0  0  0  0  0  0  0  0  0  0  0
   10.0250   38.1792   29.7654 H   0  0  0  0  0  0  0  0  0  0  0  0
   11.2757   36.3135   32.4907 H   0  0  0  0  0  0  0  0  0  0  0  0
   11.9838   36.9110   29.7708 H   0  0  0  0  0  0  0  0  0  0  0  0
   12.3308   38.3537   34.7457 H   0  0  0  0  0  0  0  0  0  0  0  0
   16.7566   34.1786   32.4623 H   0  0  0  0  0  0  0  0  0  0  0  0
   15.3535   35.7355   37.5144 H   0  0  0  0  0  0  0  0  0  0  0  0
   16.6353   34.5300   37.1418 H   0  0  0  0  0  0  0  0  0  0  0  0
  1  2  2  0
  1  3  1  0
  3  4  1  0
  4  5  1  0
  6  1  1  0
  7  6  1  0
  6  8  1  0
  8  9  1  0
  9 10  2  0
 11  9  1  0
 10 12  1  0
 13 11  2  0
 12 14  2  0
 14 13  1  0
 14 15  1  0
 15 16  1  0
 16 17  1  0
 16 18  1  0
 18 19  2  0
 20 18  1  0
 19 21  1  0
 22 20  2  0
 20 23  1  0
 21 24  1  0
 21 25  2  0
 25 22  1  0
 23 26  1  0
 23 27  2  0
 24 28  1  0
 25 29  1  0
 28 29  1  0
  4 30  2  0
  4 31  1  0
 32 31  1  0
 32 33  1  0
 33 34  1  0
 33 35  1  0
 34 36  1  0
 35 37  1  0
 35 38  1  0
 38 36  1  0
 36 39  1  0
 38 40  1  0
 41 39  1  0
 42 39  1  0
 43 41  2  0
 41 44  1  0
 45 42  2  0
 46 43  1  0
 44 47  2  0
 44 45  1  0
 48 46  2  0
 48 47  1  0
 47 49  1  0
  6 50  1  1
  7 51  1  0
  7 52  1  0
  8 53  1  0
  8 54  1  0
 10 55  1  0
 11 56  1  0
 12 57  1  0
 13 58  1  0
 16 59  1  1
 17 60  1  0
 17 61  1  0
 17 62  1  0
 19 63  1  0
 22 64  1  0
 28 65  1  0
 28 66  1  0
 32 67  1  0
 32 68  1  0
 33 69  1  0
 35 70  1  0
 36 71  1  0
 37 72  1  0
 38 73  1  0
 40 74  1  0
 42 75  1  0
 46 76  1  0
 49 77  1  0
 49 78  1  0
M  CHG  3   5  -1  23   1  26  -1
M  END
>  <EmbedRMS>  (250) 
0.0817253111249

$$$$

     RDKit          3D

 78 83  0  0  0  0  0  0  0  0999 V2000
   10.2834   43.7662   33.8257 C   0  0  0  0  0  0  0  0  0  0  0  0
   11.4101   43.5930   34.3752 O   0  0  0  0  0  0  0  0  0  0  0  0
    9.3635   42.7257   33.7353 O   0  0  0  0  0  0  0  0  0  0  0  0
    9.8899   41.2270   34.2948 P   0  0  0  0  0  0  0  0  0  0  0  0
   10.3732   41.4562   35.8841 O   0  0  0  0  0  0  0  0  0  0  0  0
    9.9546   45.0695   33.2035 C   0  0  1  0  0  0  0  0  0  0  0  0
   11.0274   46.0321   33.4755 N   0  0  0  0  0  0  0  0  0  0  0  0
    9.7466   44.8479   31.6875 C   0  0  0  0  0  0  0  0  0  0  0  0
    8.7924   45.8405   31.0841 C   0  0  0  0  0  0  0  0  0  0  0  0
    7.4056   45.6018   31.0996 C   0  0  0  0  0  0  0  0  0  0  0  0
    9.2821   46.9878   30.4428 C   0  0  0  0  0  0  0  0  0  0  0  0
    6.5269   46.5038   30.4850 C   0  0  0  0  0  0  0  0  0  0  0  0
    8.4030   47.8904   29.8328 C   0  0  0  0  0  0  0  0  0  0  0  0
    7.0141   47.6519   29.8449 C   0  0  0  0  0  0  0  0  0  0  0  0
    6.0869   48.5175   29.2411 O   0  0  0  0  0  0  0  0  0  0  0  0
    6.4106   49.6656   28.4560 C   0  0  2  0  0  0  0  0  0  0  0  0
    5.1514   50.5053   28.2390 C   0  0  0  0  0  0  0  0  0  0  0  0
    7.0393   49.2710   27.1274 C   0  0  0  0  0  0  0  0  0  0  0  0
    8.2944   49.8356   26.7917 C   0  0  0  0  0  0  0  0  0  0  0  0
    6.3918   48.4031   26.1845 C   0  0  0  0  0  0  0  0  0  0  0  0
    8.8571   49.5248   25.5607 C   0  0  0  0  0  0  0  0  0  0  0  0
    7.0058   48.1342   24.9412 C   0  0  0  0  0  0  0  0  0  0  0  0
    5.1177   47.8076   26.4570 N   0  0  0  0  0  0  0  0  0  0  0  0
   10.0595   49.9544   25.0329 O   0  0  0  0  0  0  0  0  0  0  0  0
    8.2396   48.7111   24.6741 C   0  0  0  0  0  0  0  0  0  0  0  0
    5.0048   46.8579   27.4441 O   0  0  0  0  0  0  0  0  0  0  0  0
    4.1960   47.9210   25.6231 O   0  0  0  0  0  0  0  0  0  0  0  0
   10.2052   49.3702   23.7313 C   0  0  0  0  0  0  0  0  0  0  0  0
    9.0207   48.5842   23.5416 O   0  0  0  0  0  0  0  0  0  0  0  0
    8.8120   40.1850   34.2133 O   0  0  0  0  0  0  0  0  0  0  0  0
   11.2403   40.7947   33.3700 O   0  0  0  0  0  0  0  0  0  0  0  0
   10.9144   40.6914   31.9982 C   0  0  0  0  0  0  0  0  0  0  0  0
   11.5270   39.3912   31.4385 C   0  0  0  0  0  0  0  0  0  0  0  0
   12.7520   39.0911   32.0836 O   0  0  0  0  0  0  0  0  0  0  0  0
   10.6113   38.1932   31.6451 C   0  0  0  0  0  0  0  0  0  0  0  0
   12.9413   37.6838   32.0297 C   0  0  0  0  0  0  0  0  0  0  0  0
    9.6064   38.0878   30.6599 O   0  0  0  0  0  0  0  0  0  0  0  0
   11.5822   37.0198   31.6877 C   0  0  0  0  0  0  0  0  0  0  0  0
   13.4840   37.2105   33.3254 N   0  0  0  0  0  0  0  0  0  0  0  0
   11.6179   36.3072   30.4690 O   0  0  0  0  0  0  0  0  0  0  0  0
   14.4797   36.3309   33.5738 C   0  0  0  0  0  0  0  0  0  0  0  0
   13.1136   37.6269   34.5702 C   0  0  0  0  0  0  0  0  0  0  0  0
   15.2074   35.6152   32.6747 N   0  0  0  0  0  0  0  0  0  0  0  0
   14.6756   36.2298   34.9190 C   0  0  0  0  0  0  0  0  0  0  0  0
   13.8217   37.0445   35.5793 N   0  0  0  0  0  0  0  0  0  0  0  0
   16.1643   34.7603   33.1551 C   0  0  0  0  0  0  0  0  0  0  0  0
   15.6528   35.3503   35.4136 C   0  0  0  0  0  0  0  0  0  0  0  0
   16.3798   34.6316   34.5046 N   0  0  0  0  0  0  0  0  0  0  0  0
   15.9004   35.1930   36.8094 N   0  0  0  0  0  0  0  0  0  0  0  0
    9.0121   45.4318   33.6712 H   0  0  0  0  0  0  0  0  0  0  0  0
   11.8906   45.7658   32.9468 H   0  0  0  0  0  0  0  0  0  0  0  0
   10.7260   46.9687   33.1212 H   0  0  0  0  0  0  0  0  0  0  0  0
   10.7230   44.8813   31.1555 H   0  0  0  0  0  0  0  0  0  0  0  0
    9.3415   43.8328   31.4762 H   0  0  0  0  0  0  0  0  0  0  0  0
    7.0083   44.7173   31.5820 H   0  0  0  0  0  0  0  0  0  0  0  0
   10.3465   47.1862   30.4142 H   0  0  0  0  0  0  0  0  0  0  0  0
    5.4625   46.3072   30.5026 H   0  0  0  0  0  0  0  0  0  0  0  0
    8.8174   48.7677   29.3600 H   0  0  0  0  0  0  0  0  0  0  0  0
    7.1069   50.3066   29.0415 H   0  0  0  0  0  0  0  0  0  0  0  0
    5.3826   51.3869   27.6035 H   0  0  0  0  0  0  0  0  0  0  0  0
    4.3472   49.9123   27.7586 H   0  0  0  0  0  0  0  0  0  0  0  0
    4.7734   50.8688   29.2182 H   0  0  0  0  0  0  0  0  0  0  0  0
    8.8146   50.5055   27.4646 H   0  0  0  0  0  0  0  0  0  0  0  0
    6.5366   47.4862   24.2120 H   0  0  0  0  0  0  0  0  0  0  0  0
   10.2658   50.1647   22.9583 H   0  0  0  0  0  0  0  0  0  0  0  0
   11.1051   48.7207   23.7005 H   0  0  0  0  0  0  0  0  0  0  0  0
    9.8234   40.7201   31.7654 H   0  0  0  0  0  0  0  0  0  0  0  0
   11.3776   41.5549   31.4744 H   0  0  0  0  0  0  0  0  0  0  0  0
   11.7312   39.5363   30.3532 H   0  0  0  0  0  0  0  0  0  0  0  0
   10.1202   38.2696   32.6410 H   0  0  0  0  0  0  0  0  0  0  0  0
   13.6850   37.4639   31.2321 H   0  0  0  0  0  0  0  0  0  0  0  0
   10.0251   38.1793   29.7654 H   0  0  0  0  0  0  0  0  0  0  0  0
   11.2757   36.3135   32.4907 H   0  0  0  0  0  0  0  0  0  0  0  0
   11.9838   36.9111   29.7708 H   0  0  0  0  0  0  0  0  0  0  0  0
   12.3307   38.3536   34.7458 H   0  0  0  0  0  0  0  0  0  0  0  0
   16.7566   34.1786   32.4623 H   0  0  0  0  0  0  0  0  0  0  0  0
   15.3535   35.7355   37.5144 H   0  0  0  0  0  0  0  0  0  0  0  0
   16.6353   34.5301   37.1419 H   0  0  0  0  0  0  0  0  0  0  0  0
  1  2  2  0
  1  3  1  0
  3  4  1  0
  4  5  1  0
  6  1  1  0
  7  6  1  0
  6  8  1  0
  8  9  1  0
  9 10  2  0
 11  9  1  0
 10 12  1  0
 13 11  2  0
 12 14  2  0
 14 13  1  0
 14 15  1  0
 15 16  1  0
 16 17  1  0
 16 18  1  0
 18 19  2  0
 20 18  1  0
 19 21  1  0
 22 20  2  0
 20 23  1  0
 21 24  1  0
 21 25  2  0
 25 22  1  0
 23 26  1  0
 23 27  2  0
 24 28  1  0
 25 29  1  0
 28 29  1  0
  4 30  2  0
  4 31  1  0
 32 31  1  0
 32 33  1  0
 33 34  1  0
 33 35  1  0
 34 36  1  0
 35 37  1  0
 35 38  1  0
 38 36  1  0
 36 39  1  0
 38 40  1  0
 41 39  1  0
 42 39  1  0
 43 41  2  0
 41 44  1  0
 45 42  2  0
 46 43  1  0
 44 47  2  0
 44 45  1  0
 48 46  2  0
 48 47  1  0
 47 49  1  0
  6 50  1  1
  7 51  1  0
  7 52  1  0
  8 53  1  0
  8 54  1  0
 10 55  1  0
 11 56  1  0
 12 57  1  0
 13 58  1  0
 16 59  1  1
 17 60  1  0
 17 61  1  0
 17 62  1  0
 19 63  1  0
 22 64  1  0
 28 65  1  0
 28 66  1  0
 32 67  1  0
 32 68  1  0
 33 69  1  0
 35 70  1  0
 36 71  1  0
 37 72  1  0
 38 73  1  0
 40 74  1  0
 42 75  1  0
 46 76  1  0
 49 77  1  0
 49 78  1  0
M  CHG  3   5  -1  23   1  26  -1
M  END
>  <EmbedRMS>  (251) 
0.080840627923

$$$$

     RDKit          3D

 78 83  0  0  0  0  0  0  0  0999 V2000
   10.2836   43.7661   33.8255 C   0  0  0  0  0  0  0  0  0  0  0  0
   11.4103   43.5930   34.3753 O   0  0  0  0  0  0  0  0  0  0  0  0
    9.3640   42.7253   33.7346 O   0  0  0  0  0  0  0  0  0  0  0  0
    9.8908   41.2265   34.2938 P   0  0  0  0  0  0  0  0  0  0  0  0
   10.3732   41.4559   35.8835 O   0  0  0  0  0  0  0  0  0  0  0  0
    9.9548   45.0694   33.2035 C   0  0  1  0  0  0  0  0  0  0  0  0
   11.0273   46.0322   33.4759 N   0  0  0  0  0  0  0  0  0  0  0  0
    9.7472   44.8483   31.6874 C   0  0  0  0  0  0  0  0  0  0  0  0
    8.7926   45.8407   31.0841 C   0  0  0  0  0  0  0  0  0  0  0  0
    7.4059   45.6013   31.0996 C   0  0  0  0  0  0  0  0  0  0  0  0
    9.2817   46.9880   30.4425 C   0  0  0  0  0  0  0  0  0  0  0  0
    6.5241   46.5015   30.4857 C   0  0  0  0  0  0  0  0  0  0  0  0
    8.4004   47.8884   29.8334 C   0  0  0  0  0  0  0  0  0  0  0  0
    7.0187   47.6560   29.8438 C   0  0  0  0  0  0  0  0  0  0  0  0
    6.1876   48.5976   29.2150 O   0  0  0  0  0  0  0  0  0  0  0  0
    4.7766   48.4781   29.0161 C   0  0  2  0  0  0  0  0  0  0  0  0
    4.4551   47.4462   27.9284 C   0  0  0  0  0  0  0  0  0  0  0  0
    4.1659   49.8228   28.6579 C   0  0  0  0  0  0  0  0  0  0  0  0
    2.8276   50.0553   29.0608 C   0  0  0  0  0  0  0  0  0  0  0  0
    4.8781   50.8651   27.9675 C   0  0  0  0  0  0  0  0  0  0  0  0
    2.2578   51.2943   28.8012 C   0  0  0  0  0  0  0  0  0  0  0  0
    4.2483   52.1118   27.7465 C   0  0  0  0  0  0  0  0  0  0  0  0
    6.2188   50.6847   27.4853 N   0  0  0  0  0  0  0  0  0  0  0  0
    0.9852   51.7358   29.1087 O   0  0  0  0  0  0  0  0  0  0  0  0
    2.9394   52.2803   28.1759 C   0  0  0  0  0  0  0  0  0  0  0  0
    6.5302   49.6067   26.6908 O   0  0  0  0  0  0  0  0  0  0  0  0
    7.0475   51.6122   27.5921 O   0  0  0  0  0  0  0  0  0  0  0  0
    0.8619   53.0873   28.6450 C   0  0  0  0  0  0  0  0  0  0  0  0
    2.1325   53.3954   28.0556 O   0  0  0  0  0  0  0  0  0  0  0  0
    8.8127   40.1848   34.2122 O   0  0  0  0  0  0  0  0  0  0  0  0
   11.2420   40.7941   33.3697 O   0  0  0  0  0  0  0  0  0  0  0  0
   10.9187   40.6911   31.9971 C   0  0  0  0  0  0  0  0  0  0  0  0
   11.5172   39.3815   31.4407 C   0  0  0  0  0  0  0  0  0  0  0  0
   12.7493   39.0856   32.0728 O   0  0  0  0  0  0  0  0  0  0  0  0
   10.6023   38.1908   31.6665 C   0  0  0  0  0  0  0  0  0  0  0  0
   12.9319   37.6781   32.0281 C   0  0  0  0  0  0  0  0  0  0  0  0
    9.6392   38.0798   30.6452 O   0  0  0  0  0  0  0  0  0  0  0  0
   11.5715   37.0166   31.7056 C   0  0  0  0  0  0  0  0  0  0  0  0
   13.4847   37.2121   33.3235 N   0  0  0  0  0  0  0  0  0  0  0  0
   11.6187   36.3383   30.4695 O   0  0  0  0  0  0  0  0  0  0  0  0
   14.4801   36.3321   33.5724 C   0  0  0  0  0  0  0  0  0  0  0  0
   13.1137   37.6276   34.5688 C   0  0  0  0  0  0  0  0  0  0  0  0
   15.2073   35.6153   32.6738 N   0  0  0  0  0  0  0  0  0  0  0  0
   14.6759   36.2308   34.9179 C   0  0  0  0  0  0  0  0  0  0  0  0
   13.8216   37.0452   35.5781 N   0  0  0  0  0  0  0  0  0  0  0  0
   16.1640   34.7602   33.1546 C   0  0  0  0  0  0  0  0  0  0  0  0
   15.6526   35.3508   35.4129 C   0  0  0  0  0  0  0  0  0  0  0  0
   16.3794   34.6317   34.5041 N   0  0  0  0  0  0  0  0  0  0  0  0
   15.8999   35.1934   36.8088 N   0  0  0  0  0  0  0  0  0  0  0  0
    9.0121   45.4316   33.6712 H   0  0  0  0  0  0  0  0  0  0  0  0
   10.7260   46.9688   33.1215 H   0  0  0  0  0  0  0  0  0  0  0  0
   11.8908   45.7659   32.9475 H   0  0  0  0  0  0  0  0  0  0  0  0
    9.3426   43.8330   31.4757 H   0  0  0  0  0  0  0  0  0  0  0  0
   10.7236   44.8823   31.1557 H   0  0  0  0  0  0  0  0  0  0  0  0
    7.0104   44.7167   31.5836 H   0  0  0  0  0  0  0  0  0  0  0  0
   10.3459   47.1867   30.4112 H   0  0  0  0  0  0  0  0  0  0  0  0
    5.4663   46.2859   30.5225 H   0  0  0  0  0  0  0  0  0  0  0  0
    8.7938   48.7707   29.3443 H   0  0  0  0  0  0  0  0  0  0  0  0
    4.3173   48.1426   29.9717 H   0  0  0  0  0  0  0  0  0  0  0  0
    4.8275   47.7777   26.9385 H   0  0  0  0  0  0  0  0  0  0  0  0
    4.9187   46.4673   28.1660 H   0  0  0  0  0  0  0  0  0  0  0  0
    3.3561   47.2993   27.8597 H   0  0  0  0  0  0  0  0  0  0  0  0
    2.2512   49.2948   29.5729 H   0  0  0  0  0  0  0  0  0  0  0  0
    4.7591   52.9174   27.2347 H   0  0  0  0  0  0  0  0  0  0  0  0
    0.0582   53.1599   27.8825 H   0  0  0  0  0  0  0  0  0  0  0  0
    0.6595   53.7690   29.4975 H   0  0  0  0  0  0  0  0  0  0  0  0
   11.3969   41.5460   31.4729 H   0  0  0  0  0  0  0  0  0  0  0  0
    9.8300   40.7410   31.7613 H   0  0  0  0  0  0  0  0  0  0  0  0
   11.6975   39.5067   30.3481 H   0  0  0  0  0  0  0  0  0  0  0  0
   10.1077   38.2648   32.6646 H   0  0  0  0  0  0  0  0  0  0  0  0
   13.6621   37.4467   31.2209 H   0  0  0  0  0  0  0  0  0  0  0  0
    8.8975   38.6944   30.8831 H   0  0  0  0  0  0  0  0  0  0  0  0
   11.2806   36.3073   32.5171 H   0  0  0  0  0  0  0  0  0  0  0  0
   10.8492   35.7110   30.4586 H   0  0  0  0  0  0  0  0  0  0  0  0
   12.3290   38.3524   34.7444 H   0  0  0  0  0  0  0  0  0  0  0  0
   16.7559   34.1780   32.4619 H   0  0  0  0  0  0  0  0  0  0  0  0
   15.3532   35.7362   37.5137 H   0  0  0  0  0  0  0  0  0  0  0  0
   16.6344   34.5301   37.1414 H   0  0  0  0  0  0  0  0  0  0  0  0
  1  2  2  0
  1  3  1  0
  3  4  1  0
  4  5  1  0
  6  1  1  0
  7  6  1  0
  6  8  1  0
  8  9  1  0
  9 10  2  0
 11  9  1  0
 10 12  1  0
 13 11  2  0
 12 14  2  0
 14 13  1  0
 14 15  1  0
 15 16  1  0
 16 17  1  0
 16 18  1  0
 18 19  2  0
 20 18  1  0
 19 21  1  0
 22 20  2  0
 20 23  1  0
 21 24  1  0
 21 25  2  0
 25 22  1  0
 23 26  1  0
 23 27  2  0
 24 28  1  0
 25 29  1  0
 28 29  1  0
  4 30  2  0
  4 31  1  0
 32 31  1  0
 32 33  1  0
 33 34  1  0
 33 35  1  0
 34 36  1  0
 35 37  1  0
 35 38  1  0
 38 36  1  0
 36 39  1  0
 38 40  1  0
 41 39  1  0
 42 39  1  0
 43 41  2  0
 41 44  1  0
 45 42  2  0
 46 43  1  0
 44 47  2  0
 44 45  1  0
 48 46  2  0
 48 47  1  0
 47 49  1  0
  6 50  1  1
  7 51  1  0
  7 52  1  0
  8 53  1  0
  8 54  1  0
 10 55  1  0
 11 56  1  0
 12 57  1  0
 13 58  1  0
 16 59  1  1
 17 60  1  0
 17 61  1  0
 17 62  1  0
 19 63  1  0
 22 64  1  0
 28 65  1  0
 28 66  1  0
 32 67  1  0
 32 68  1  0
 33 69  1  0
 35 70  1  0
 36 71  1  0
 37 72  1  0
 38 73  1  0
 40 74  1  0
 42 75  1  0
 46 76  1  0
 49 77  1  0
 49 78  1  0
M  CHG  3   5  -1  23   1  26  -1
M  END
>  <EmbedRMS>  (252) 
0.0829305457924

$$$$

     RDKit          3D

 78 83  0  0  0  0  0  0  0  0999 V2000
   10.2803   43.7665   33.8250 C   0  0  0  0  0  0  0  0  0  0  0  0
   11.4110   43.5919   34.3666 O   0  0  0  0  0  0  0  0  0  0  0  0
    9.3616   42.7251   33.7348 O   0  0  0  0  0  0  0  0  0  0  0  0
    9.8896   41.2269   34.2945 P   0  0  0  0  0  0  0  0  0  0  0  0
   10.3731   41.4568   35.8837 O   0  0  0  0  0  0  0  0  0  0  0  0
    9.9459   45.0736   33.2111 C   0  0  1  0  0  0  0  0  0  0  0  0
   11.0267   46.0291   33.4705 N   0  0  0  0  0  0  0  0  0  0  0  0
    9.7535   44.8538   31.6949 C   0  0  0  0  0  0  0  0  0  0  0  0
    8.7955   45.8410   31.0846 C   0  0  0  0  0  0  0  0  0  0  0  0
    7.4086   45.6008   31.1013 C   0  0  0  0  0  0  0  0  0  0  0  0
    9.2830   46.9878   30.4401 C   0  0  0  0  0  0  0  0  0  0  0  0
    6.5280   46.5015   30.4862 C   0  0  0  0  0  0  0  0  0  0  0  0
    8.4025   47.8894   29.8311 C   0  0  0  0  0  0  0  0  0  0  0  0
    7.0136   47.6501   29.8463 C   0  0  0  0  0  0  0  0  0  0  0  0
    6.0871   48.5162   29.2426 O   0  0  0  0  0  0  0  0  0  0  0  0
    6.4193   49.6748   28.4725 C   0  0  2  0  0  0  0  0  0  0  0  0
    5.1397   50.4595   28.1889 C   0  0  0  0  0  0  0  0  0  0  0  0
    7.0838   49.2748   27.1656 C   0  0  0  0  0  0  0  0  0  0  0  0
    6.5433   48.1862   26.4380 C   0  0  0  0  0  0  0  0  0  0  0  0
    8.2656   49.9264   26.6781 C   0  0  0  0  0  0  0  0  0  0  0  0
    7.2034   47.7602   25.2933 C   0  0  0  0  0  0  0  0  0  0  0  0
    8.9031   49.4371   25.5158 C   0  0  0  0  0  0  0  0  0  0  0  0
    8.8193   51.0791   27.3315 N   0  0  0  0  0  0  0  0  0  0  0  0
    6.8691   46.7221   24.4450 O   0  0  0  0  0  0  0  0  0  0  0  0
    8.3363   48.3554   24.8548 C   0  0  0  0  0  0  0  0  0  0  0  0
   10.1832   51.2566   27.3634 O   0  0  0  0  0  0  0  0  0  0  0  0
    8.0809   52.0301   27.6601 O   0  0  0  0  0  0  0  0  0  0  0  0
    7.8567   46.6639   23.4068 C   0  0  0  0  0  0  0  0  0  0  0  0
    8.7745   47.7245   23.7064 O   0  0  0  0  0  0  0  0  0  0  0  0
    8.8122   40.1844   34.2135 O   0  0  0  0  0  0  0  0  0  0  0  0
   11.2401   40.7950   33.3698 O   0  0  0  0  0  0  0  0  0  0  0  0
   10.9143   40.6914   31.9981 C   0  0  0  0  0  0  0  0  0  0  0  0
   11.5270   39.3912   31.4385 C   0  0  0  0  0  0  0  0  0  0  0  0
   12.7519   39.0911   32.0837 O   0  0  0  0  0  0  0  0  0  0  0  0
   10.6113   38.1932   31.6451 C   0  0  0  0  0  0  0  0  0  0  0  0
   12.9413   37.6838   32.0297 C   0  0  0  0  0  0  0  0  0  0  0  0
    9.6064   38.0878   30.6599 O   0  0  0  0  0  0  0  0  0  0  0  0
   11.5822   37.0197   31.6877 C   0  0  0  0  0  0  0  0  0  0  0  0
   13.4840   37.2104   33.3254 N   0  0  0  0  0  0  0  0  0  0  0  0
   11.6179   36.3072   30.4690 O   0  0  0  0  0  0  0  0  0  0  0  0
   14.4797   36.3309   33.5738 C   0  0  0  0  0  0  0  0  0  0  0  0
   13.1136   37.6269   34.5702 C   0  0  0  0  0  0  0  0  0  0  0  0
   15.2074   35.6152   32.6747 N   0  0  0  0  0  0  0  0  0  0  0  0
   14.6756   36.2298   34.9190 C   0  0  0  0  0  0  0  0  0  0  0  0
   13.8217   37.0445   35.5793 N   0  0  0  0  0  0  0  0  0  0  0  0
   16.1643   34.7603   33.1551 C   0  0  0  0  0  0  0  0  0  0  0  0
   15.6528   35.3503   35.4136 C   0  0  0  0  0  0  0  0  0  0  0  0
   16.3798   34.6316   34.5046 N   0  0  0  0  0  0  0  0  0  0  0  0
   15.9004   35.1930   36.8094 N   0  0  0  0  0  0  0  0  0  0  0  0
    8.9996   45.4383   33.6722 H   0  0  0  0  0  0  0  0  0  0  0  0
   11.0504   46.2278   34.4979 H   0  0  0  0  0  0  0  0  0  0  0  0
   10.7765   46.9368   33.0155 H   0  0  0  0  0  0  0  0  0  0  0  0
    9.3635   43.8352   31.4715 H   0  0  0  0  0  0  0  0  0  0  0  0
   10.7406   44.9069   31.1833 H   0  0  0  0  0  0  0  0  0  0  0  0
    7.0130   44.7167   31.5857 H   0  0  0  0  0  0  0  0  0  0  0  0
   10.3471   47.1869   30.4076 H   0  0  0  0  0  0  0  0  0  0  0  0
    5.4638   46.3038   30.5046 H   0  0  0  0  0  0  0  0  0  0  0  0
    8.8150   48.7654   29.3519 H   0  0  0  0  0  0  0  0  0  0  0  0
    7.0774   50.3205   29.0893 H   0  0  0  0  0  0  0  0  0  0  0  0
    4.6744   50.7760   29.1464 H   0  0  0  0  0  0  0  0  0  0  0  0
    4.4110   49.8325   27.6319 H   0  0  0  0  0  0  0  0  0  0  0  0
    5.3673   51.3674   27.5908 H   0  0  0  0  0  0  0  0  0  0  0  0
    5.6491   47.6728   26.7683 H   0  0  0  0  0  0  0  0  0  0  0  0
    9.7993   49.9024   25.1259 H   0  0  0  0  0  0  0  0  0  0  0  0
    7.3839   46.8346   22.4169 H   0  0  0  0  0  0  0  0  0  0  0  0
    8.3810   45.6856   23.4299 H   0  0  0  0  0  0  0  0  0  0  0  0
    9.8233   40.7200   31.7651 H   0  0  0  0  0  0  0  0  0  0  0  0
   11.3775   41.5548   31.4741 H   0  0  0  0  0  0  0  0  0  0  0  0
   11.7312   39.5362   30.3532 H   0  0  0  0  0  0  0  0  0  0  0  0
   10.1203   38.2696   32.6410 H   0  0  0  0  0  0  0  0  0  0  0  0
   13.6850   37.4639   31.2321 H   0  0  0  0  0  0  0  0  0  0  0  0
   10.0251   38.1792   29.7654 H   0  0  0  0  0  0  0  0  0  0  0  0
   11.2757   36.3135   32.4907 H   0  0  0  0  0  0  0  0  0  0  0  0
   11.9839   36.9111   29.7708 H   0  0  0  0  0  0  0  0  0  0  0  0
   12.3307   38.3536   34.7458 H   0  0  0  0  0  0  0  0  0  0  0  0
   16.7566   34.1787   32.4623 H   0  0  0  0  0  0  0  0  0  0  0  0
   16.6353   34.5300   37.1419 H   0  0  0  0  0  0  0  0  0  0  0  0
   15.3535   35.7355   37.5144 H   0  0  0  0  0  0  0  0  0  0  0  0
  1  2  2  0
  1  3  1  0
  3  4  1  0
  4  5  1  0
  6  1  1  0
  7  6  1  0
  6  8  1  0
  8  9  1  0
  9 10  2  0
 11  9  1  0
 10 12  1  0
 13 11  2  0
 12 14  2  0
 14 13  1  0
 14 15  1  0
 15 16  1  0
 16 17  1  0
 16 18  1  0
 18 19  2  0
 20 18  1  0
 19 21  1  0
 22 20  2  0
 20 23  1  0
 21 24  1  0
 21 25  2  0
 25 22  1  0
 23 26  1  0
 23 27  2  0
 24 28  1  0
 25 29  1  0
 28 29  1  0
  4 30  2  0
  4 31  1  0
 32 31  1  0
 32 33  1  0
 33 34  1  0
 33 35  1  0
 34 36  1  0
 35 37  1  0
 35 38  1  0
 38 36  1  0
 36 39  1  0
 38 40  1  0
 41 39  1  0
 42 39  1  0
 43 41  2  0
 41 44  1  0
 45 42  2  0
 46 43  1  0
 44 47  2  0
 44 45  1  0
 48 46  2  0
 48 47  1  0
 47 49  1  0
  6 50  1  1
  7 51  1  0
  7 52  1  0
  8 53  1  0
  8 54  1  0
 10 55  1  0
 11 56  1  0
 12 57  1  0
 13 58  1  0
 16 59  1  1
 17 60  1  0
 17 61  1  0
 17 62  1  0
 19 63  1  0
 22 64  1  0
 28 65  1  0
 28 66  1  0
 32 67  1  0
 32 68  1  0
 33 69  1  0
 35 70  1  0
 36 71  1  0
 37 72  1  0
 38 73  1  0
 40 74  1  0
 42 75  1  0
 46 76  1  0
 49 77  1  0
 49 78  1  0
M  CHG  3   5  -1  23   1  26  -1
M  END
>  <EmbedRMS>  (253) 
0.0806586316142

$$$$

     RDKit          3D

 78 83  0  0  0  0  0  0  0  0999 V2000
   10.2803   43.7666   33.8250 C   0  0  0  0  0  0  0  0  0  0  0  0
   11.4110   43.5919   34.3666 O   0  0  0  0  0  0  0  0  0  0  0  0
    9.3616   42.7252   33.7348 O   0  0  0  0  0  0  0  0  0  0  0  0
    9.8898   41.2268   34.2939 P   0  0  0  0  0  0  0  0  0  0  0  0
   10.3738   41.4566   35.8831 O   0  0  0  0  0  0  0  0  0  0  0  0
    9.9459   45.0738   33.2112 C   0  0  1  0  0  0  0  0  0  0  0  0
   11.0266   46.0293   33.4709 N   0  0  0  0  0  0  0  0  0  0  0  0
    9.7540   44.8543   31.6949 C   0  0  0  0  0  0  0  0  0  0  0  0
    8.7957   45.8412   31.0848 C   0  0  0  0  0  0  0  0  0  0  0  0
    7.4090   45.5997   31.1008 C   0  0  0  0  0  0  0  0  0  0  0  0
    9.2824   46.9876   30.4389 C   0  0  0  0  0  0  0  0  0  0  0  0
    6.5261   46.4982   30.4858 C   0  0  0  0  0  0  0  0  0  0  0  0
    8.3997   47.8870   29.8302 C   0  0  0  0  0  0  0  0  0  0  0  0
    7.0181   47.6558   29.8484 C   0  0  0  0  0  0  0  0  0  0  0  0
    6.1788   48.5952   29.2272 O   0  0  0  0  0  0  0  0  0  0  0  0
    4.7489   48.5630   29.2418 C   0  0  2  0  0  0  0  0  0  0  0  0
    4.2241   49.6246   28.2767 C   0  0  0  0  0  0  0  0  0  0  0  0
    4.2239   48.8284   30.6427 C   0  0  0  0  0  0  0  0  0  0  0  0
    4.8132   49.8706   31.3998 C   0  0  0  0  0  0  0  0  0  0  0  0
    3.1972   48.0233   31.2377 C   0  0  0  0  0  0  0  0  0  0  0  0
    4.3986   50.0535   32.7122 C   0  0  0  0  0  0  0  0  0  0  0  0
    2.8271   48.2467   32.5840 C   0  0  0  0  0  0  0  0  0  0  0  0
    2.5169   47.0007   30.4936 N   0  0  0  0  0  0  0  0  0  0  0  0
    4.8391   50.9875   33.6300 O   0  0  0  0  0  0  0  0  0  0  0  0
    3.4514   49.2726   33.2809 C   0  0  0  0  0  0  0  0  0  0  0  0
    2.0126   47.2765   29.2438 O   0  0  0  0  0  0  0  0  0  0  0  0
    2.1841   45.9371   31.0560 O   0  0  0  0  0  0  0  0  0  0  0  0
    4.1201   50.7788   34.8532 C   0  0  0  0  0  0  0  0  0  0  0  0
    3.2444   49.6747   34.5864 O   0  0  0  0  0  0  0  0  0  0  0  0
    8.8122   40.1845   34.2134 O   0  0  0  0  0  0  0  0  0  0  0  0
   11.2400   40.7954   33.3680 O   0  0  0  0  0  0  0  0  0  0  0  0
   10.9124   40.6877   31.9967 C   0  0  0  0  0  0  0  0  0  0  0  0
   11.5169   39.3811   31.4420 C   0  0  0  0  0  0  0  0  0  0  0  0
   12.7500   39.0881   32.0760 O   0  0  0  0  0  0  0  0  0  0  0  0
   10.6043   38.1893   31.6659 C   0  0  0  0  0  0  0  0  0  0  0  0
   12.9395   37.6814   32.0280 C   0  0  0  0  0  0  0  0  0  0  0  0
    9.6353   38.0951   30.6499 O   0  0  0  0  0  0  0  0  0  0  0  0
   11.5804   37.0191   31.6934 C   0  0  0  0  0  0  0  0  0  0  0  0
   13.4851   37.2119   33.3244 N   0  0  0  0  0  0  0  0  0  0  0  0
   11.6118   36.3189   30.4673 O   0  0  0  0  0  0  0  0  0  0  0  0
   14.4801   36.3316   33.5732 C   0  0  0  0  0  0  0  0  0  0  0  0
   13.1139   37.6277   34.5692 C   0  0  0  0  0  0  0  0  0  0  0  0
   15.2076   35.6154   32.6744 N   0  0  0  0  0  0  0  0  0  0  0  0
   14.6756   36.2303   34.9186 C   0  0  0  0  0  0  0  0  0  0  0  0
   13.8215   37.0451   35.5786 N   0  0  0  0  0  0  0  0  0  0  0  0
   16.1642   34.7602   33.1551 C   0  0  0  0  0  0  0  0  0  0  0  0
   15.6526   35.3505   35.4134 C   0  0  0  0  0  0  0  0  0  0  0  0
   16.3795   34.6316   34.5046 N   0  0  0  0  0  0  0  0  0  0  0  0
   15.9000   35.1933   36.8093 N   0  0  0  0  0  0  0  0  0  0  0  0
    8.9994   45.4383   33.6721 H   0  0  0  0  0  0  0  0  0  0  0  0
   10.7763   46.9370   33.0160 H   0  0  0  0  0  0  0  0  0  0  0  0
   11.0500   46.2279   34.4983 H   0  0  0  0  0  0  0  0  0  0  0  0
    9.3647   43.8355   31.4711 H   0  0  0  0  0  0  0  0  0  0  0  0
   10.7412   44.9081   31.1837 H   0  0  0  0  0  0  0  0  0  0  0  0
    7.0150   44.7142   31.5843 H   0  0  0  0  0  0  0  0  0  0  0  0
   10.3463   47.1874   30.4044 H   0  0  0  0  0  0  0  0  0  0  0  0
    5.4687   46.2788   30.5123 H   0  0  0  0  0  0  0  0  0  0  0  0
    8.7915   48.7697   29.3408 H   0  0  0  0  0  0  0  0  0  0  0  0
    4.4225   47.5739   28.8600 H   0  0  0  0  0  0  0  0  0  0  0  0
    3.1134   49.6269   28.2702 H   0  0  0  0  0  0  0  0  0  0  0  0
    4.5859   50.6335   28.5694 H   0  0  0  0  0  0  0  0  0  0  0  0
    4.5819   49.4056   27.2484 H   0  0  0  0  0  0  0  0  0  0  0  0
    5.5876   50.5033   30.9849 H   0  0  0  0  0  0  0  0  0  0  0  0
    2.0592   47.6533   33.0634 H   0  0  0  0  0  0  0  0  0  0  0  0
    3.5293   51.6828   35.1105 H   0  0  0  0  0  0  0  0  0  0  0  0
    4.8232   50.5208   35.6727 H   0  0  0  0  0  0  0  0  0  0  0  0
   11.3807   41.5456   31.4683 H   0  0  0  0  0  0  0  0  0  0  0  0
    9.8215   40.7221   31.7644 H   0  0  0  0  0  0  0  0  0  0  0  0
   11.6986   39.5088   30.3499 H   0  0  0  0  0  0  0  0  0  0  0  0
   10.1109   38.2737   32.6630 H   0  0  0  0  0  0  0  0  0  0  0  0
   13.6783   37.4562   31.2271 H   0  0  0  0  0  0  0  0  0  0  0  0
    9.0020   37.3860   30.9348 H   0  0  0  0  0  0  0  0  0  0  0  0
   11.2808   36.3052   32.4921 H   0  0  0  0  0  0  0  0  0  0  0  0
   11.8819   36.9600   29.7584 H   0  0  0  0  0  0  0  0  0  0  0  0
   12.3303   38.3538   34.7446 H   0  0  0  0  0  0  0  0  0  0  0  0
   16.7563   34.1783   32.4624 H   0  0  0  0  0  0  0  0  0  0  0  0
   16.6347   34.5301   37.1418 H   0  0  0  0  0  0  0  0  0  0  0  0
   15.3532   35.7359   37.5142 H   0  0  0  0  0  0  0  0  0  0  0  0
  1  2  2  0
  1  3  1  0
  3  4  1  0
  4  5  1  0
  6  1  1  0
  7  6  1  0
  6  8  1  0
  8  9  1  0
  9 10  2  0
 11  9  1  0
 10 12  1  0
 13 11  2  0
 12 14  2  0
 14 13  1  0
 14 15  1  0
 15 16  1  0
 16 17  1  0
 16 18  1  0
 18 19  2  0
 20 18  1  0
 19 21  1  0
 22 20  2  0
 20 23  1  0
 21 24  1  0
 21 25  2  0
 25 22  1  0
 23 26  1  0
 23 27  2  0
 24 28  1  0
 25 29  1  0
 28 29  1  0
  4 30  2  0
  4 31  1  0
 32 31  1  0
 32 33  1  0
 33 34  1  0
 33 35  1  0
 34 36  1  0
 35 37  1  0
 35 38  1  0
 38 36  1  0
 36 39  1  0
 38 40  1  0
 41 39  1  0
 42 39  1  0
 43 41  2  0
 41 44  1  0
 45 42  2  0
 46 43  1  0
 44 47  2  0
 44 45  1  0
 48 46  2  0
 48 47  1  0
 47 49  1  0
  6 50  1  1
  7 51  1  0
  7 52  1  0
  8 53  1  0
  8 54  1  0
 10 55  1  0
 11 56  1  0
 12 57  1  0
 13 58  1  0
 16 59  1  6
 17 60  1  0
 17 61  1  0
 17 62  1  0
 19 63  1  0
 22 64  1  0
 28 65  1  0
 28 66  1  0
 32 67  1  0
 32 68  1  0
 33 69  1  0
 35 70  1  0
 36 71  1  0
 37 72  1  0
 38 73  1  0
 40 74  1  0
 42 75  1  0
 46 76  1  0
 49 77  1  0
 49 78  1  0
M  CHG  3   5  -1  23   1  26  -1
M  END
>  <EmbedRMS>  (254) 
0.0813836932508

$$$$

     RDKit          3D

 78 83  0  0  0  0  0  0  0  0999 V2000
   10.2805   43.7663   33.8250 C   0  0  0  0  0  0  0  0  0  0  0  0
   11.4111   43.5918   34.3668 O   0  0  0  0  0  0  0  0  0  0  0  0
    9.3621   42.7247   33.7344 O   0  0  0  0  0  0  0  0  0  0  0  0
    9.8903   41.2264   34.2936 P   0  0  0  0  0  0  0  0  0  0  0  0
   10.3732   41.4564   35.8831 O   0  0  0  0  0  0  0  0  0  0  0  0
    9.9459   45.0735   33.2114 C   0  0  1  0  0  0  0  0  0  0  0  0
   11.0267   46.0291   33.4707 N   0  0  0  0  0  0  0  0  0  0  0  0
    9.7535   44.8539   31.6952 C   0  0  0  0  0  0  0  0  0  0  0  0
    8.7954   45.8413   31.0854 C   0  0  0  0  0  0  0  0  0  0  0  0
    7.4089   45.6003   31.1005 C   0  0  0  0  0  0  0  0  0  0  0  0
    9.2827   46.9874   30.4397 C   0  0  0  0  0  0  0  0  0  0  0  0
    6.5287   46.5003   30.4843 C   0  0  0  0  0  0  0  0  0  0  0  0
    8.4026   47.8887   29.8292 C   0  0  0  0  0  0  0  0  0  0  0  0
    7.0127   47.6527   29.8494 C   0  0  0  0  0  0  0  0  0  0  0  0
    6.0799   48.5158   29.2508 O   0  0  0  0  0  0  0  0  0  0  0  0
    6.3559   49.8042   28.6988 C   0  0  2  0  0  0  0  0  0  0  0  0
    6.6603   50.8283   29.8012 C   0  0  0  0  0  0  0  0  0  0  0  0
    5.1855   50.2531   27.8368 C   0  0  0  0  0  0  0  0  0  0  0  0
    5.4331   50.4988   26.4625 C   0  0  0  0  0  0  0  0  0  0  0  0
    3.8626   50.4805   28.3565 C   0  0  0  0  0  0  0  0  0  0  0  0
    4.3945   50.9689   25.6701 C   0  0  0  0  0  0  0  0  0  0  0  0
    2.8514   50.9755   27.5028 C   0  0  0  0  0  0  0  0  0  0  0  0
    3.5267   50.2402   29.7307 N   0  0  0  0  0  0  0  0  0  0  0  0
    4.4137   51.2771   24.3233 O   0  0  0  0  0  0  0  0  0  0  0  0
    3.1596   51.2003   26.1688 C   0  0  0  0  0  0  0  0  0  0  0  0
    2.7311   51.1405   30.4008 O   0  0  0  0  0  0  0  0  0  0  0  0
    3.7247   49.1193   30.2405 O   0  0  0  0  0  0  0  0  0  0  0  0
    3.1041   51.7304   23.9546 C   0  0  0  0  0  0  0  0  0  0  0  0
    2.3345   51.6657   25.1630 O   0  0  0  0  0  0  0  0  0  0  0  0
    8.8128   40.1841   34.2125 O   0  0  0  0  0  0  0  0  0  0  0  0
   11.2416   40.7945   33.3692 O   0  0  0  0  0  0  0  0  0  0  0  0
   10.9178   40.6904   31.9968 C   0  0  0  0  0  0  0  0  0  0  0  0
   11.5181   39.3813   31.4408 C   0  0  0  0  0  0  0  0  0  0  0  0
   12.7497   39.0870   32.0746 O   0  0  0  0  0  0  0  0  0  0  0  0
   10.6045   38.1891   31.6655 C   0  0  0  0  0  0  0  0  0  0  0  0
   12.9344   37.6801   32.0290 C   0  0  0  0  0  0  0  0  0  0  0  0
    9.6418   38.0758   30.6441 O   0  0  0  0  0  0  0  0  0  0  0  0
   11.5741   37.0170   31.7045 C   0  0  0  0  0  0  0  0  0  0  0  0
   13.4851   37.2125   33.3241 N   0  0  0  0  0  0  0  0  0  0  0  0
   11.6079   36.3407   30.4680 O   0  0  0  0  0  0  0  0  0  0  0  0
   14.4801   36.3321   33.5727 C   0  0  0  0  0  0  0  0  0  0  0  0
   13.1140   37.6277   34.5693 C   0  0  0  0  0  0  0  0  0  0  0  0
   15.2073   35.6155   32.6739 N   0  0  0  0  0  0  0  0  0  0  0  0
   14.6758   36.2306   34.9182 C   0  0  0  0  0  0  0  0  0  0  0  0
   13.8217   37.0451   35.5785 N   0  0  0  0  0  0  0  0  0  0  0  0
   16.1639   34.7602   33.1546 C   0  0  0  0  0  0  0  0  0  0  0  0
   15.6526   35.3506   35.4130 C   0  0  0  0  0  0  0  0  0  0  0  0
   16.3794   34.6316   34.5041 N   0  0  0  0  0  0  0  0  0  0  0  0
   15.9001   35.1933   36.8089 N   0  0  0  0  0  0  0  0  0  0  0  0
    8.9996   45.4380   33.6726 H   0  0  0  0  0  0  0  0  0  0  0  0
   11.0505   46.2277   34.4981 H   0  0  0  0  0  0  0  0  0  0  0  0
   10.7764   46.9368   33.0157 H   0  0  0  0  0  0  0  0  0  0  0  0
    9.3634   43.8353   31.4717 H   0  0  0  0  0  0  0  0  0  0  0  0
   10.7405   44.9070   31.1836 H   0  0  0  0  0  0  0  0  0  0  0  0
    7.0133   44.7157   31.5841 H   0  0  0  0  0  0  0  0  0  0  0  0
   10.3472   47.1842   30.4042 H   0  0  0  0  0  0  0  0  0  0  0  0
    5.4645   46.3024   30.5033 H   0  0  0  0  0  0  0  0  0  0  0  0
    8.8206   48.7547   29.3377 H   0  0  0  0  0  0  0  0  0  0  0  0
    7.2589   49.7276   28.0553 H   0  0  0  0  0  0  0  0  0  0  0  0
    7.6190   50.5841   30.3021 H   0  0  0  0  0  0  0  0  0  0  0  0
    5.8685   50.8382   30.5762 H   0  0  0  0  0  0  0  0  0  0  0  0
    6.7525   51.8452   29.3634 H   0  0  0  0  0  0  0  0  0  0  0  0
    6.4098   50.3422   26.0223 H   0  0  0  0  0  0  0  0  0  0  0  0
    1.8496   51.1628   27.8675 H   0  0  0  0  0  0  0  0  0  0  0  0
    3.1496   52.7762   23.5847 H   0  0  0  0  0  0  0  0  0  0  0  0
    2.6675   51.0589   23.1858 H   0  0  0  0  0  0  0  0  0  0  0  0
   11.3944   41.5458   31.4720 H   0  0  0  0  0  0  0  0  0  0  0  0
    9.8288   40.7385   31.7615 H   0  0  0  0  0  0  0  0  0  0  0  0
   11.6994   39.5068   30.3484 H   0  0  0  0  0  0  0  0  0  0  0  0
   10.1090   38.2634   32.6632 H   0  0  0  0  0  0  0  0  0  0  0  0
   13.6662   37.4515   31.2224 H   0  0  0  0  0  0  0  0  0  0  0  0
    8.9008   38.6923   30.8794 H   0  0  0  0  0  0  0  0  0  0  0  0
   11.2650   36.3083   32.5087 H   0  0  0  0  0  0  0  0  0  0  0  0
   12.1372   35.5141   30.6163 H   0  0  0  0  0  0  0  0  0  0  0  0
   12.3297   38.3530   34.7450 H   0  0  0  0  0  0  0  0  0  0  0  0
   16.7558   34.1781   32.4619 H   0  0  0  0  0  0  0  0  0  0  0  0
   16.6346   34.5300   37.1414 H   0  0  0  0  0  0  0  0  0  0  0  0
   15.3533   35.7360   37.5138 H   0  0  0  0  0  0  0  0  0  0  0  0
  1  2  2  0
  1  3  1  0
  3  4  1  0
  4  5  1  0
  6  1  1  0
  7  6  1  0
  6  8  1  0
  8  9  1  0
  9 10  2  0
 11  9  1  0
 10 12  1  0
 13 11  2  0
 12 14  2  0
 14 13  1  0
 14 15  1  0
 15 16  1  0
 16 17  1  0
 16 18  1  0
 18 19  2  0
 20 18  1  0
 19 21  1  0
 22 20  2  0
 20 23  1  0
 21 24  1  0
 21 25  2  0
 25 22  1  0
 23 26  1  0
 23 27  2  0
 24 28  1  0
 25 29  1  0
 28 29  1  0
  4 30  2  0
  4 31  1  0
 32 31  1  0
 32 33  1  0
 33 34  1  0
 33 35  1  0
 34 36  1  0
 35 37  1  0
 35 38  1  0
 38 36  1  0
 36 39  1  0
 38 40  1  0
 41 39  1  0
 42 39  1  0
 43 41  2  0
 41 44  1  0
 45 42  2  0
 46 43  1  0
 44 47  2  0
 44 45  1  0
 48 46  2  0
 48 47  1  0
 47 49  1  0
  6 50  1  1
  7 51  1  0
  7 52  1  0
  8 53  1  0
  8 54  1  0
 10 55  1  0
 11 56  1  0
 12 57  1  0
 13 58  1  0
 16 59  1  6
 17 60  1  0
 17 61  1  0
 17 62  1  0
 19 63  1  0
 22 64  1  0
 28 65  1  0
 28 66  1  0
 32 67  1  0
 32 68  1  0
 33 69  1  0
 35 70  1  0
 36 71  1  0
 37 72  1  0
 38 73  1  0
 40 74  1  0
 42 75  1  0
 46 76  1  0
 49 77  1  0
 49 78  1  0
M  CHG  3   5  -1  23   1  26  -1
M  END
>  <EmbedRMS>  (255) 
0.0826429933107

$$$$

     RDKit          3D

 78 83  0  0  0  0  0  0  0  0999 V2000
   10.2835   43.7662   33.8257 C   0  0  0  0  0  0  0  0  0  0  0  0
   11.4103   43.5929   34.3752 O   0  0  0  0  0  0  0  0  0  0  0  0
    9.3635   42.7257   33.7352 O   0  0  0  0  0  0  0  0  0  0  0  0
    9.8902   41.2269   34.2941 P   0  0  0  0  0  0  0  0  0  0  0  0
   10.3739   41.4559   35.8835 O   0  0  0  0  0  0  0  0  0  0  0  0
    9.9548   45.0696   33.2038 C   0  0  1  0  0  0  0  0  0  0  0  0
   11.0275   46.0322   33.4761 N   0  0  0  0  0  0  0  0  0  0  0  0
    9.7470   44.8486   31.6879 C   0  0  0  0  0  0  0  0  0  0  0  0
    8.7925   45.8416   31.0857 C   0  0  0  0  0  0  0  0  0  0  0  0
    7.4063   45.6008   31.0985 C   0  0  0  0  0  0  0  0  0  0  0  0
    9.2815   46.9874   30.4418 C   0  0  0  0  0  0  0  0  0  0  0  0
    6.5252   46.5002   30.4833 C   0  0  0  0  0  0  0  0  0  0  0  0
    8.4003   47.8863   29.8305 C   0  0  0  0  0  0  0  0  0  0  0  0
    7.0175   47.6592   29.8481 C   0  0  0  0  0  0  0  0  0  0  0  0
    6.1871   48.6007   29.2084 O   0  0  0  0  0  0  0  0  0  0  0  0
    4.7617   48.7397   29.3322 C   0  0  2  0  0  0  0  0  0  0  0  0
    4.3578   48.8477   30.8170 C   0  0  0  0  0  0  0  0  0  0  0  0
    3.9802   47.6716   28.5617 C   0  0  0  0  0  0  0  0  0  0  0  0
    4.6722   46.6846   27.8093 C   0  0  0  0  0  0  0  0  0  0  0  0
    2.5425   47.6478   28.5645 C   0  0  0  0  0  0  0  0  0  0  0  0
    3.9406   45.6836   27.1849 C   0  0  0  0  0  0  0  0  0  0  0  0
    1.8533   46.5926   27.9244 C   0  0  0  0  0  0  0  0  0  0  0  0
    1.7726   48.6977   29.1677 N   0  0  0  0  0  0  0  0  0  0  0  0
    4.4068   44.6227   26.4323 O   0  0  0  0  0  0  0  0  0  0  0  0
    2.5919   45.6334   27.2486 C   0  0  0  0  0  0  0  0  0  0  0  0
    2.0250   50.0095   28.8395 O   0  0  0  0  0  0  0  0  0  0  0  0
    0.7295   48.4235   29.7963 O   0  0  0  0  0  0  0  0  0  0  0  0
    3.2748   43.8562   25.9992 C   0  0  0  0  0  0  0  0  0  0  0  0
    2.1355   44.5375   26.5417 O   0  0  0  0  0  0  0  0  0  0  0  0
    8.8120   40.1851   34.2131 O   0  0  0  0  0  0  0  0  0  0  0  0
   11.2402   40.7951   33.3681 O   0  0  0  0  0  0  0  0  0  0  0  0
   10.9125   40.6877   31.9968 C   0  0  0  0  0  0  0  0  0  0  0  0
   11.5169   39.3811   31.4420 C   0  0  0  0  0  0  0  0  0  0  0  0
   12.7500   39.0881   32.0759 O   0  0  0  0  0  0  0  0  0  0  0  0
   10.6043   38.1893   31.6659 C   0  0  0  0  0  0  0  0  0  0  0  0
   12.9395   37.6814   32.0280 C   0  0  0  0  0  0  0  0  0  0  0  0
    9.6353   38.0951   30.6499 O   0  0  0  0  0  0  0  0  0  0  0  0
   11.5804   37.0191   31.6934 C   0  0  0  0  0  0  0  0  0  0  0  0
   13.4851   37.2119   33.3244 N   0  0  0  0  0  0  0  0  0  0  0  0
   11.6118   36.3189   30.4673 O   0  0  0  0  0  0  0  0  0  0  0  0
   14.4801   36.3316   33.5732 C   0  0  0  0  0  0  0  0  0  0  0  0
   13.1139   37.6277   34.5692 C   0  0  0  0  0  0  0  0  0  0  0  0
   15.2076   35.6154   32.6744 N   0  0  0  0  0  0  0  0  0  0  0  0
   14.6756   36.2303   34.9186 C   0  0  0  0  0  0  0  0  0  0  0  0
   13.8215   37.0451   35.5786 N   0  0  0  0  0  0  0  0  0  0  0  0
   16.1642   34.7602   33.1551 C   0  0  0  0  0  0  0  0  0  0  0  0
   15.6526   35.3505   35.4134 C   0  0  0  0  0  0  0  0  0  0  0  0
   16.3796   34.6316   34.5045 N   0  0  0  0  0  0  0  0  0  0  0  0
   15.9001   35.1933   36.8093 N   0  0  0  0  0  0  0  0  0  0  0  0
    9.0122   45.4318   33.6717 H   0  0  0  0  0  0  0  0  0  0  0  0
   11.8909   45.7658   32.9477 H   0  0  0  0  0  0  0  0  0  0  0  0
   10.7262   46.9688   33.1217 H   0  0  0  0  0  0  0  0  0  0  0  0
    9.3422   43.8334   31.4760 H   0  0  0  0  0  0  0  0  0  0  0  0
   10.7234   44.8826   31.1559 H   0  0  0  0  0  0  0  0  0  0  0  0
    7.0112   44.7108   31.5729 H   0  0  0  0  0  0  0  0  0  0  0  0
   10.3459   47.1852   30.4088 H   0  0  0  0  0  0  0  0  0  0  0  0
    5.4731   46.2627   30.4832 H   0  0  0  0  0  0  0  0  0  0  0  0
    8.7946   48.7666   29.3387 H   0  0  0  0  0  0  0  0  0  0  0  0
    4.5193   49.7135   28.8586 H   0  0  0  0  0  0  0  0  0  0  0  0
    3.4864   49.5212   30.9421 H   0  0  0  0  0  0  0  0  0  0  0  0
    5.1888   49.2834   31.4113 H   0  0  0  0  0  0  0  0  0  0  0  0
    4.0898   47.8608   31.2455 H   0  0  0  0  0  0  0  0  0  0  0  0
    5.7472   46.6798   27.7063 H   0  0  0  0  0  0  0  0  0  0  0  0
    0.7718   46.5454   27.9224 H   0  0  0  0  0  0  0  0  0  0  0  0
    3.3324   42.8239   26.4036 H   0  0  0  0  0  0  0  0  0  0  0  0
    3.2214   43.8431   24.8904 H   0  0  0  0  0  0  0  0  0  0  0  0
    9.8216   40.7222   31.7646 H   0  0  0  0  0  0  0  0  0  0  0  0
   11.3808   41.5456   31.4686 H   0  0  0  0  0  0  0  0  0  0  0  0
   11.6986   39.5089   30.3499 H   0  0  0  0  0  0  0  0  0  0  0  0
   10.1109   38.2737   32.6630 H   0  0  0  0  0  0  0  0  0  0  0  0
   13.6783   37.4562   31.2271 H   0  0  0  0  0  0  0  0  0  0  0  0
    9.0020   37.3860   30.9348 H   0  0  0  0  0  0  0  0  0  0  0  0
   11.2807   36.3053   32.4921 H   0  0  0  0  0  0  0  0  0  0  0  0
   11.8818   36.9600   29.7584 H   0  0  0  0  0  0  0  0  0  0  0  0
   12.3304   38.3539   34.7445 H   0  0  0  0  0  0  0  0  0  0  0  0
   16.7564   34.1783   32.4623 H   0  0  0  0  0  0  0  0  0  0  0  0
   15.3532   35.7359   37.5142 H   0  0  0  0  0  0  0  0  0  0  0  0
   16.6348   34.5301   37.1418 H   0  0  0  0  0  0  0  0  0  0  0  0
  1  2  2  0
  1  3  1  0
  3  4  1  0
  4  5  1  0
  6  1  1  0
  7  6  1  0
  6  8  1  0
  8  9  1  0
  9 10  2  0
 11  9  1  0
 10 12  1  0
 13 11  2  0
 12 14  2  0
 14 13  1  0
 14 15  1  0
 15 16  1  0
 16 17  1  0
 16 18  1  0
 18 19  2  0
 20 18  1  0
 19 21  1  0
 22 20  2  0
 20 23  1  0
 21 24  1  0
 21 25  2  0
 25 22  1  0
 23 26  1  0
 23 27  2  0
 24 28  1  0
 25 29  1  0
 28 29  1  0
  4 30  2  0
  4 31  1  0
 32 31  1  0
 32 33  1  0
 33 34  1  0
 33 35  1  0
 34 36  1  0
 35 37  1  0
 35 38  1  0
 38 36  1  0
 36 39  1  0
 38 40  1  0
 41 39  1  0
 42 39  1  0
 43 41  2  0
 41 44  1  0
 45 42  2  0
 46 43  1  0
 44 47  2  0
 44 45  1  0
 48 46  2  0
 48 47  1  0
 47 49  1  0
  6 50  1  1
  7 51  1  0
  7 52  1  0
  8 53  1  0
  8 54  1  0
 10 55  1  0
 11 56  1  0
 12 57  1  0
 13 58  1  0
 16 59  1  6
 17 60  1  0
 17 61  1  0
 17 62  1  0
 19 63  1  0
 22 64  1  0
 28 65  1  0
 28 66  1  0
 32 67  1  0
 32 68  1  0
 33 69  1  0
 35 70  1  0
 36 71  1  0
 37 72  1  0
 38 73  1  0
 40 74  1  0
 42 75  1  0
 46 76  1  0
 49 77  1  0
 49 78  1  0
M  CHG  3   5  -1  23   1  26  -1
M  END
>  <EmbedRMS>  (256) 
0.0815303065142

$$$$

     RDKit          3D

 78 83  0  0  0  0  0  0  0  0999 V2000
   10.2804   43.7664   33.8251 C   0  0  0  0  0  0  0  0  0  0  0  0
   11.4111   43.5918   34.3667 O   0  0  0  0  0  0  0  0  0  0  0  0
    9.3619   42.7249   33.7346 O   0  0  0  0  0  0  0  0  0  0  0  0
    9.8900   41.2266   34.2940 P   0  0  0  0  0  0  0  0  0  0  0  0
   10.3734   41.4566   35.8833 O   0  0  0  0  0  0  0  0  0  0  0  0
    9.9459   45.0735   33.2113 C   0  0  1  0  0  0  0  0  0  0  0  0
   11.0267   46.0291   33.4706 N   0  0  0  0  0  0  0  0  0  0  0  0
    9.7535   44.8539   31.6951 C   0  0  0  0  0  0  0  0  0  0  0  0
    8.7955   45.8412   31.0852 C   0  0  0  0  0  0  0  0  0  0  0  0
    7.4089   45.6003   31.1005 C   0  0  0  0  0  0  0  0  0  0  0  0
    9.2828   46.9874   30.4397 C   0  0  0  0  0  0  0  0  0  0  0  0
    6.5286   46.5005   30.4846 C   0  0  0  0  0  0  0  0  0  0  0  0
    8.4026   47.8888   29.8294 C   0  0  0  0  0  0  0  0  0  0  0  0
    7.0127   47.6525   29.8492 C   0  0  0  0  0  0  0  0  0  0  0  0
    6.0806   48.5167   29.2505 O   0  0  0  0  0  0  0  0  0  0  0  0
    6.3687   49.7887   28.6613 C   0  0  2  0  0  0  0  0  0  0  0  0
    6.6462   50.8265   29.7549 C   0  0  0  0  0  0  0  0  0  0  0  0
    5.1805   50.2291   27.8274 C   0  0  0  0  0  0  0  0  0  0  0  0
    3.8802   50.0827   28.3716 C   0  0  0  0  0  0  0  0  0  0  0  0
    5.3289   50.7479   26.4979 C   0  0  0  0  0  0  0  0  0  0  0  0
    2.7879   50.4144   27.5810 C   0  0  0  0  0  0  0  0  0  0  0  0
    4.1780   51.0527   25.7346 C   0  0  0  0  0  0  0  0  0  0  0  0
    6.6227   50.9956   25.9252 N   0  0  0  0  0  0  0  0  0  0  0  0
    1.4450   50.3425   27.8976 O   0  0  0  0  0  0  0  0  0  0  0  0
    2.9303   50.8736   26.3167 C   0  0  0  0  0  0  0  0  0  0  0  0
    7.5710   51.6914   26.6388 O   0  0  0  0  0  0  0  0  0  0  0  0
    6.8162   50.7887   24.7094 O   0  0  0  0  0  0  0  0  0  0  0  0
    0.6973   50.7865   26.7572 C   0  0  0  0  0  0  0  0  0  0  0  0
    1.6846   51.1162   25.7705 O   0  0  0  0  0  0  0  0  0  0  0  0
    8.8124   40.1844   34.2133 O   0  0  0  0  0  0  0  0  0  0  0  0
   11.2405   40.7942   33.3692 O   0  0  0  0  0  0  0  0  0  0  0  0
   10.9150   40.6905   31.9972 C   0  0  0  0  0  0  0  0  0  0  0  0
   11.5252   39.3886   31.4375 C   0  0  0  0  0  0  0  0  0  0  0  0
   12.7499   39.0874   32.0799 O   0  0  0  0  0  0  0  0  0  0  0  0
   10.6092   38.1926   31.6470 C   0  0  0  0  0  0  0  0  0  0  0  0
   12.9332   37.6793   32.0294 C   0  0  0  0  0  0  0  0  0  0  0  0
    9.6122   38.0894   30.6542 O   0  0  0  0  0  0  0  0  0  0  0  0
   11.5743   37.0145   31.7024 C   0  0  0  0  0  0  0  0  0  0  0  0
   13.4844   37.2108   33.3241 N   0  0  0  0  0  0  0  0  0  0  0  0
   11.6298   36.3239   30.4740 O   0  0  0  0  0  0  0  0  0  0  0  0
   14.4802   36.3313   33.5727 C   0  0  0  0  0  0  0  0  0  0  0  0
   13.1138   37.6266   34.5692 C   0  0  0  0  0  0  0  0  0  0  0  0
   15.2075   35.6149   32.6739 N   0  0  0  0  0  0  0  0  0  0  0  0
   14.6761   36.2303   34.9182 C   0  0  0  0  0  0  0  0  0  0  0  0
   13.8220   37.0447   35.5785 N   0  0  0  0  0  0  0  0  0  0  0  0
   16.1643   34.7600   33.1547 C   0  0  0  0  0  0  0  0  0  0  0  0
   15.6529   35.3505   35.4130 C   0  0  0  0  0  0  0  0  0  0  0  0
   16.3798   34.6315   34.5042 N   0  0  0  0  0  0  0  0  0  0  0  0
   15.9003   35.1932   36.8090 N   0  0  0  0  0  0  0  0  0  0  0  0
    8.9996   45.4381   33.6725 H   0  0  0  0  0  0  0  0  0  0  0  0
   10.7764   46.9368   33.0157 H   0  0  0  0  0  0  0  0  0  0  0  0
   11.0505   46.2277   34.4980 H   0  0  0  0  0  0  0  0  0  0  0  0
    9.3635   43.8353   31.4717 H   0  0  0  0  0  0  0  0  0  0  0  0
   10.7406   44.9069   31.1836 H   0  0  0  0  0  0  0  0  0  0  0  0
    7.0133   44.7158   31.5842 H   0  0  0  0  0  0  0  0  0  0  0  0
   10.3472   47.1847   30.4050 H   0  0  0  0  0  0  0  0  0  0  0  0
    5.4644   46.3026   30.5037 H   0  0  0  0  0  0  0  0  0  0  0  0
    8.8199   48.7572   29.3413 H   0  0  0  0  0  0  0  0  0  0  0  0
    7.2607   49.6828   28.0133 H   0  0  0  0  0  0  0  0  0  0  0  0
    5.7853   50.8950   30.4536 H   0  0  0  0  0  0  0  0  0  0  0  0
    7.5472   50.5483   30.3382 H   0  0  0  0  0  0  0  0  0  0  0  0
    6.8219   51.8254   29.3022 H   0  0  0  0  0  0  0  0  0  0  0  0
    3.7252   49.7048   29.3744 H   0  0  0  0  0  0  0  0  0  0  0  0
    4.2563   51.4431   24.7280 H   0  0  0  0  0  0  0  0  0  0  0  0
    0.0994   51.6853   27.0162 H   0  0  0  0  0  0  0  0  0  0  0  0
    0.0422   49.9707   26.3860 H   0  0  0  0  0  0  0  0  0  0  0  0
   11.3800   41.5528   31.4730 H   0  0  0  0  0  0  0  0  0  0  0  0
    9.8242   40.7215   31.7641 H   0  0  0  0  0  0  0  0  0  0  0  0
   11.7266   39.5310   30.3513 H   0  0  0  0  0  0  0  0  0  0  0  0
   10.1110   38.2747   32.6387 H   0  0  0  0  0  0  0  0  0  0  0  0
   13.6652   37.4520   31.2226 H   0  0  0  0  0  0  0  0  0  0  0  0
   10.0511   38.1143   29.7645 H   0  0  0  0  0  0  0  0  0  0  0  0
   11.2762   36.3141   32.5189 H   0  0  0  0  0  0  0  0  0  0  0  0
   10.8593   35.6978   30.4640 H   0  0  0  0  0  0  0  0  0  0  0  0
   12.3294   38.3518   34.7450 H   0  0  0  0  0  0  0  0  0  0  0  0
   16.7564   34.1780   32.4620 H   0  0  0  0  0  0  0  0  0  0  0  0
   15.3534   35.7359   37.5138 H   0  0  0  0  0  0  0  0  0  0  0  0
   16.6349   34.5300   37.1416 H   0  0  0  0  0  0  0  0  0  0  0  0
  1  2  2  0
  1  3  1  0
  3  4  1  0
  4  5  1  0
  6  1  1  0
  7  6  1  0
  6  8  1  0
  8  9  1  0
  9 10  2  0
 11  9  1  0
 10 12  1  0
 13 11  2  0
 12 14  2  0
 14 13  1  0
 14 15  1  0
 15 16  1  0
 16 17  1  0
 16 18  1  0
 18 19  2  0
 20 18  1  0
 19 21  1  0
 22 20  2  0
 20 23  1  0
 21 24  1  0
 21 25  2  0
 25 22  1  0
 23 26  1  0
 23 27  2  0
 24 28  1  0
 25 29  1  0
 28 29  1  0
  4 30  2  0
  4 31  1  0
 32 31  1  0
 32 33  1  0
 33 34  1  0
 33 35  1  0
 34 36  1  0
 35 37  1  0
 35 38  1  0
 38 36  1  0
 36 39  1  0
 38 40  1  0
 41 39  1  0
 42 39  1  0
 43 41  2  0
 41 44  1  0
 45 42  2  0
 46 43  1  0
 44 47  2  0
 44 45  1  0
 48 46  2  0
 48 47  1  0
 47 49  1  0
  6 50  1  1
  7 51  1  0
  7 52  1  0
  8 53  1  0
  8 54  1  0
 10 55  1  0
 11 56  1  0
 12 57  1  0
 13 58  1  0
 16 59  1  6
 17 60  1  0
 17 61  1  0
 17 62  1  0
 19 63  1  0
 22 64  1  0
 28 65  1  0
 28 66  1  0
 32 67  1  0
 32 68  1  0
 33 69  1  0
 35 70  1  0
 36 71  1  0
 37 72  1  0
 38 73  1  0
 40 74  1  0
 42 75  1  0
 46 76  1  0
 49 77  1  0
 49 78  1  0
M  CHG  3   5  -1  23   1  26  -1
M  END
>  <EmbedRMS>  (257) 
0.0816291808226

$$$$

     RDKit          3D

 78 83  0  0  0  0  0  0  0  0999 V2000
   10.2834   43.7662   33.8257 C   0  0  0  0  0  0  0  0  0  0  0  0
   11.4101   43.5930   34.3752 O   0  0  0  0  0  0  0  0  0  0  0  0
    9.3635   42.7257   33.7353 O   0  0  0  0  0  0  0  0  0  0  0  0
    9.8899   41.2270   34.2948 P   0  0  0  0  0  0  0  0  0  0  0  0
   10.3732   41.4562   35.8841 O   0  0  0  0  0  0  0  0  0  0  0  0
    9.9546   45.0695   33.2034 C   0  0  1  0  0  0  0  0  0  0  0  0
   11.0274   46.0321   33.4755 N   0  0  0  0  0  0  0  0  0  0  0  0
    9.7466   44.8479   31.6875 C   0  0  0  0  0  0  0  0  0  0  0  0
    8.7924   45.8404   31.0840 C   0  0  0  0  0  0  0  0  0  0  0  0
    7.4056   45.6018   31.0995 C   0  0  0  0  0  0  0  0  0  0  0  0
    9.2821   46.9879   30.4428 C   0  0  0  0  0  0  0  0  0  0  0  0
    6.5269   46.5039   30.4850 C   0  0  0  0  0  0  0  0  0  0  0  0
    8.4030   47.8905   29.8330 C   0  0  0  0  0  0  0  0  0  0  0  0
    7.0142   47.6518   29.8449 C   0  0  0  0  0  0  0  0  0  0  0  0
    6.0870   48.5177   29.2420 O   0  0  0  0  0  0  0  0  0  0  0  0
    6.4089   49.6492   28.4323 C   0  0  2  0  0  0  0  0  0  0  0  0
    5.1515   50.4895   28.2060 C   0  0  0  0  0  0  0  0  0  0  0  0
    7.0326   49.2287   27.1080 C   0  0  0  0  0  0  0  0  0  0  0  0
    8.2987   49.7699   26.7733 C   0  0  0  0  0  0  0  0  0  0  0  0
    6.3736   48.3654   26.1655 C   0  0  0  0  0  0  0  0  0  0  0  0
    8.8608   49.4438   25.5464 C   0  0  0  0  0  0  0  0  0  0  0  0
    6.9884   48.0835   24.9255 C   0  0  0  0  0  0  0  0  0  0  0  0
    5.0839   47.7945   26.4246 N   0  0  0  0  0  0  0  0  0  0  0  0
   10.0723   49.8508   25.0215 O   0  0  0  0  0  0  0  0  0  0  0  0
    8.2329   48.6376   24.6611 C   0  0  0  0  0  0  0  0  0  0  0  0
    4.1246   47.8203   25.4390 O   0  0  0  0  0  0  0  0  0  0  0  0
    4.9172   47.0411   27.4043 O   0  0  0  0  0  0  0  0  0  0  0  0
   10.2130   49.2588   23.7229 C   0  0  0  0  0  0  0  0  0  0  0  0
    9.0158   48.4925   23.5320 O   0  0  0  0  0  0  0  0  0  0  0  0
    8.8120   40.1850   34.2133 O   0  0  0  0  0  0  0  0  0  0  0  0
   11.2403   40.7947   33.3700 O   0  0  0  0  0  0  0  0  0  0  0  0
   10.9144   40.6914   31.9982 C   0  0  0  0  0  0  0  0  0  0  0  0
   11.5270   39.3912   31.4385 C   0  0  0  0  0  0  0  0  0  0  0  0
   12.7520   39.0911   32.0836 O   0  0  0  0  0  0  0  0  0  0  0  0
   10.6113   38.1932   31.6451 C   0  0  0  0  0  0  0  0  0  0  0  0
   12.9413   37.6838   32.0297 C   0  0  0  0  0  0  0  0  0  0  0  0
    9.6064   38.0878   30.6599 O   0  0  0  0  0  0  0  0  0  0  0  0
   11.5822   37.0198   31.6877 C   0  0  0  0  0  0  0  0  0  0  0  0
   13.4840   37.2104   33.3254 N   0  0  0  0  0  0  0  0  0  0  0  0
   11.6179   36.3072   30.4690 O   0  0  0  0  0  0  0  0  0  0  0  0
   14.4797   36.3309   33.5738 C   0  0  0  0  0  0  0  0  0  0  0  0
   13.1137   37.6269   34.5702 C   0  0  0  0  0  0  0  0  0  0  0  0
   15.2074   35.6152   32.6747 N   0  0  0  0  0  0  0  0  0  0  0  0
   14.6756   36.2298   34.9190 C   0  0  0  0  0  0  0  0  0  0  0  0
   13.8217   37.0445   35.5793 N   0  0  0  0  0  0  0  0  0  0  0  0
   16.1643   34.7603   33.1551 C   0  0  0  0  0  0  0  0  0  0  0  0
   15.6528   35.3503   35.4136 C   0  0  0  0  0  0  0  0  0  0  0  0
   16.3798   34.6316   34.5046 N   0  0  0  0  0  0  0  0  0  0  0  0
   15.9004   35.1930   36.8094 N   0  0  0  0  0  0  0  0  0  0  0  0
    9.0120   45.4318   33.6712 H   0  0  0  0  0  0  0  0  0  0  0  0
   10.7259   46.9687   33.1212 H   0  0  0  0  0  0  0  0  0  0  0  0
   11.8906   45.7658   32.9468 H   0  0  0  0  0  0  0  0  0  0  0  0
   10.7230   44.8813   31.1555 H   0  0  0  0  0  0  0  0  0  0  0  0
    9.3416   43.8327   31.4762 H   0  0  0  0  0  0  0  0  0  0  0  0
    7.0082   44.7172   31.5819 H   0  0  0  0  0  0  0  0  0  0  0  0
   10.3465   47.1865   30.4147 H   0  0  0  0  0  0  0  0  0  0  0  0
    5.4624   46.3072   30.5023 H   0  0  0  0  0  0  0  0  0  0  0  0
    8.8169   48.7690   29.3623 H   0  0  0  0  0  0  0  0  0  0  0  0
    7.1088   50.2992   29.0031 H   0  0  0  0  0  0  0  0  0  0  0  0
    5.3830   51.3584   27.5533 H   0  0  0  0  0  0  0  0  0  0  0  0
    4.7799   50.8725   29.1802 H   0  0  0  0  0  0  0  0  0  0  0  0
    4.3422   49.8917   27.7405 H   0  0  0  0  0  0  0  0  0  0  0  0
    8.8279   50.4356   27.4432 H   0  0  0  0  0  0  0  0  0  0  0  0
    6.5124   47.4412   24.1957 H   0  0  0  0  0  0  0  0  0  0  0  0
   10.2901   50.0489   22.9469 H   0  0  0  0  0  0  0  0  0  0  0  0
   11.1016   48.5937   23.6982 H   0  0  0  0  0  0  0  0  0  0  0  0
   11.3776   41.5549   31.4744 H   0  0  0  0  0  0  0  0  0  0  0  0
    9.8234   40.7201   31.7654 H   0  0  0  0  0  0  0  0  0  0  0  0
   11.7311   39.5363   30.3532 H   0  0  0  0  0  0  0  0  0  0  0  0
   10.1203   38.2696   32.6410 H   0  0  0  0  0  0  0  0  0  0  0  0
   13.6850   37.4639   31.2321 H   0  0  0  0  0  0  0  0  0  0  0  0
   10.0251   38.1793   29.7654 H   0  0  0  0  0  0  0  0  0  0  0  0
   11.2757   36.3135   32.4907 H   0  0  0  0  0  0  0  0  0  0  0  0
   11.9838   36.9111   29.7708 H   0  0  0  0  0  0  0  0  0  0  0  0
   12.3307   38.3536   34.7457 H   0  0  0  0  0  0  0  0  0  0  0  0
   16.7566   34.1787   32.4623 H   0  0  0  0  0  0  0  0  0  0  0  0
   15.3535   35.7355   37.5144 H   0  0  0  0  0  0  0  0  0  0  0  0
   16.6353   34.5301   37.1419 H   0  0  0  0  0  0  0  0  0  0  0  0
  1  2  2  0
  1  3  1  0
  3  4  1  0
  4  5  1  0
  6  1  1  0
  7  6  1  0
  6  8  1  0
  8  9  1  0
  9 10  2  0
 11  9  1  0
 10 12  1  0
 13 11  2  0
 12 14  2  0
 14 13  1  0
 14 15  1  0
 15 16  1  0
 16 17  1  0
 16 18  1  0
 18 19  2  0
 20 18  1  0
 19 21  1  0
 22 20  2  0
 20 23  1  0
 21 24  1  0
 21 25  2  0
 25 22  1  0
 23 26  1  0
 23 27  2  0
 24 28  1  0
 25 29  1  0
 28 29  1  0
  4 30  2  0
  4 31  1  0
 32 31  1  0
 32 33  1  0
 33 34  1  0
 33 35  1  0
 34 36  1  0
 35 37  1  0
 35 38  1  0
 38 36  1  0
 36 39  1  0
 38 40  1  0
 41 39  1  0
 42 39  1  0
 43 41  2  0
 41 44  1  0
 45 42  2  0
 46 43  1  0
 44 47  2  0
 44 45  1  0
 48 46  2  0
 48 47  1  0
 47 49  1  0
  6 50  1  1
  7 51  1  0
  7 52  1  0
  8 53  1  0
  8 54  1  0
 10 55  1  0
 11 56  1  0
 12 57  1  0
 13 58  1  0
 16 59  1  1
 17 60  1  0
 17 61  1  0
 17 62  1  0
 19 63  1  0
 22 64  1  0
 28 65  1  0
 28 66  1  0
 32 67  1  0
 32 68  1  0
 33 69  1  0
 35 70  1  0
 36 71  1  0
 37 72  1  0
 38 73  1  0
 40 74  1  0
 42 75  1  0
 46 76  1  0
 49 77  1  0
 49 78  1  0
M  CHG  3   5  -1  23   1  26  -1
M  END
>  <EmbedRMS>  (258) 
0.0808441207994

$$$$

     RDKit          3D

 78 83  0  0  0  0  0  0  0  0999 V2000
   10.2839   43.7627   33.8277 C   0  0  0  0  0  0  0  0  0  0  0  0
   11.4104   43.5862   34.3766 O   0  0  0  0  0  0  0  0  0  0  0  0
    9.3629   42.7238   33.7357 O   0  0  0  0  0  0  0  0  0  0  0  0
    9.8890   41.2252   34.2949 P   0  0  0  0  0  0  0  0  0  0  0  0
   10.3723   41.4548   35.8843 O   0  0  0  0  0  0  0  0  0  0  0  0
    9.9550   45.0700   33.2067 C   0  0  1  0  0  0  0  0  0  0  0  0
   11.0200   46.0481   33.4573 N   0  0  0  0  0  0  0  0  0  0  0  0
    9.7505   44.8514   31.6926 C   0  0  0  0  0  0  0  0  0  0  0  0
    8.7944   45.8427   31.0883 C   0  0  0  0  0  0  0  0  0  0  0  0
    7.4082   45.6003   31.0995 C   0  0  0  0  0  0  0  0  0  0  0  0
    9.2825   46.9887   30.4443 C   0  0  0  0  0  0  0  0  0  0  0  0
    6.5265   46.4989   30.4835 C   0  0  0  0  0  0  0  0  0  0  0  0
    8.4007   47.8863   29.8312 C   0  0  0  0  0  0  0  0  0  0  0  0
    7.0180   47.6581   29.8483 C   0  0  0  0  0  0  0  0  0  0  0  0
    6.1872   48.5987   29.2076 O   0  0  0  0  0  0  0  0  0  0  0  0
    4.7619   48.7387   29.3322 C   0  0  2  0  0  0  0  0  0  0  0  0
    4.3568   48.8407   30.8172 C   0  0  0  0  0  0  0  0  0  0  0  0
    3.9786   47.6751   28.5574 C   0  0  0  0  0  0  0  0  0  0  0  0
    4.6686   46.6804   27.8133 C   0  0  0  0  0  0  0  0  0  0  0  0
    2.5400   47.6620   28.5487 C   0  0  0  0  0  0  0  0  0  0  0  0
    3.9341   45.6822   27.1878 C   0  0  0  0  0  0  0  0  0  0  0  0
    1.8483   46.6089   27.9098 C   0  0  0  0  0  0  0  0  0  0  0  0
    1.7691   48.7165   29.1422 N   0  0  0  0  0  0  0  0  0  0  0  0
    4.3978   44.6150   26.4426 O   0  0  0  0  0  0  0  0  0  0  0  0
    2.5847   45.6417   27.2429 C   0  0  0  0  0  0  0  0  0  0  0  0
    0.5964   48.4189   29.7973 O   0  0  0  0  0  0  0  0  0  0  0  0
    2.0141   49.9065   28.8569 O   0  0  0  0  0  0  0  0  0  0  0  0
    3.2633   43.8547   26.0053 C   0  0  0  0  0  0  0  0  0  0  0  0
    2.1253   44.5461   26.5376 O   0  0  0  0  0  0  0  0  0  0  0  0
    8.8112   40.1834   34.2131 O   0  0  0  0  0  0  0  0  0  0  0  0
   11.2398   40.7938   33.3702 O   0  0  0  0  0  0  0  0  0  0  0  0
   10.9144   40.6912   31.9983 C   0  0  0  0  0  0  0  0  0  0  0  0
   11.5270   39.3911   31.4385 C   0  0  0  0  0  0  0  0  0  0  0  0
   12.7520   39.0911   32.0835 O   0  0  0  0  0  0  0  0  0  0  0  0
   10.6113   38.1931   31.6451 C   0  0  0  0  0  0  0  0  0  0  0  0
   12.9413   37.6837   32.0297 C   0  0  0  0  0  0  0  0  0  0  0  0
    9.6064   38.0877   30.6599 O   0  0  0  0  0  0  0  0  0  0  0  0
   11.5822   37.0197   31.6876 C   0  0  0  0  0  0  0  0  0  0  0  0
   13.4840   37.2104   33.3254 N   0  0  0  0  0  0  0  0  0  0  0  0
   11.6179   36.3071   30.4690 O   0  0  0  0  0  0  0  0  0  0  0  0
   14.4797   36.3309   33.5738 C   0  0  0  0  0  0  0  0  0  0  0  0
   13.1136   37.6269   34.5702 C   0  0  0  0  0  0  0  0  0  0  0  0
   15.2074   35.6152   32.6747 N   0  0  0  0  0  0  0  0  0  0  0  0
   14.6756   36.2298   34.9190 C   0  0  0  0  0  0  0  0  0  0  0  0
   13.8217   37.0445   35.5793 N   0  0  0  0  0  0  0  0  0  0  0  0
   16.1643   34.7603   33.1551 C   0  0  0  0  0  0  0  0  0  0  0  0
   15.6528   35.3503   35.4136 C   0  0  0  0  0  0  0  0  0  0  0  0
   16.3798   34.6316   34.5046 N   0  0  0  0  0  0  0  0  0  0  0  0
   15.9004   35.1930   36.8094 N   0  0  0  0  0  0  0  0  0  0  0  0
    9.0101   45.4349   33.6674 H   0  0  0  0  0  0  0  0  0  0  0  0
   11.1135   46.1992   34.4887 H   0  0  0  0  0  0  0  0  0  0  0  0
   11.9351   45.6933   33.0930 H   0  0  0  0  0  0  0  0  0  0  0  0
    9.3517   43.8348   31.4760 H   0  0  0  0  0  0  0  0  0  0  0  0
   10.7308   44.8935   31.1678 H   0  0  0  0  0  0  0  0  0  0  0  0
    7.0138   44.7099   31.5736 H   0  0  0  0  0  0  0  0  0  0  0  0
   10.3465   47.1884   30.4133 H   0  0  0  0  0  0  0  0  0  0  0  0
    5.4748   46.2600   30.4822 H   0  0  0  0  0  0  0  0  0  0  0  0
    8.7945   48.7667   29.3395 H   0  0  0  0  0  0  0  0  0  0  0  0
    4.5211   49.7151   28.8627 H   0  0  0  0  0  0  0  0  0  0  0  0
    5.1881   49.2722   31.4143 H   0  0  0  0  0  0  0  0  0  0  0  0
    4.0862   47.8525   31.2409 H   0  0  0  0  0  0  0  0  0  0  0  0
    3.4864   49.5150   30.9450 H   0  0  0  0  0  0  0  0  0  0  0  0
    5.7442   46.6673   27.7177 H   0  0  0  0  0  0  0  0  0  0  0  0
    0.7666   46.5690   27.9006 H   0  0  0  0  0  0  0  0  0  0  0  0
    3.3111   42.8237   26.4144 H   0  0  0  0  0  0  0  0  0  0  0  0
    3.2170   43.8373   24.8963 H   0  0  0  0  0  0  0  0  0  0  0  0
   11.3780   41.5548   31.4750 H   0  0  0  0  0  0  0  0  0  0  0  0
    9.8235   40.7202   31.7651 H   0  0  0  0  0  0  0  0  0  0  0  0
   11.7311   39.5363   30.3531 H   0  0  0  0  0  0  0  0  0  0  0  0
   10.1203   38.2695   32.6410 H   0  0  0  0  0  0  0  0  0  0  0  0
   13.6850   37.4638   31.2321 H   0  0  0  0  0  0  0  0  0  0  0  0
   10.0250   38.1792   29.7654 H   0  0  0  0  0  0  0  0  0  0  0  0
   11.2757   36.3135   32.4907 H   0  0  0  0  0  0  0  0  0  0  0  0
   11.9838   36.9111   29.7708 H   0  0  0  0  0  0  0  0  0  0  0  0
   12.3307   38.3536   34.7457 H   0  0  0  0  0  0  0  0  0  0  0  0
   16.7566   34.1787   32.4623 H   0  0  0  0  0  0  0  0  0  0  0  0
   16.6353   34.5301   37.1419 H   0  0  0  0  0  0  0  0  0  0  0  0
   15.3535   35.7355   37.5144 H   0  0  0  0  0  0  0  0  0  0  0  0
  1  2  2  0
  1  3  1  0
  3  4  1  0
  4  5  1  0
  6  1  1  0
  7  6  1  0
  6  8  1  0
  8  9  1  0
  9 10  2  0
 11  9  1  0
 10 12  1  0
 13 11  2  0
 12 14  2  0
 14 13  1  0
 14 15  1  0
 15 16  1  0
 16 17  1  0
 16 18  1  0
 18 19  2  0
 20 18  1  0
 19 21  1  0
 22 20  2  0
 20 23  1  0
 21 24  1  0
 21 25  2  0
 25 22  1  0
 23 26  1  0
 23 27  2  0
 24 28  1  0
 25 29  1  0
 28 29  1  0
  4 30  2  0
  4 31  1  0
 32 31  1  0
 32 33  1  0
 33 34  1  0
 33 35  1  0
 34 36  1  0
 35 37  1  0
 35 38  1  0
 38 36  1  0
 36 39  1  0
 38 40  1  0
 41 39  1  0
 42 39  1  0
 43 41  2  0
 41 44  1  0
 45 42  2  0
 46 43  1  0
 44 47  2  0
 44 45  1  0
 48 46  2  0
 48 47  1  0
 47 49  1  0
  6 50  1  1
  7 51  1  0
  7 52  1  0
  8 53  1  0
  8 54  1  0
 10 55  1  0
 11 56  1  0
 12 57  1  0
 13 58  1  0
 16 59  1  6
 17 60  1  0
 17 61  1  0
 17 62  1  0
 19 63  1  0
 22 64  1  0
 28 65  1  0
 28 66  1  0
 32 67  1  0
 32 68  1  0
 33 69  1  0
 35 70  1  0
 36 71  1  0
 37 72  1  0
 38 73  1  0
 40 74  1  0
 42 75  1  0
 46 76  1  0
 49 77  1  0
 49 78  1  0
M  CHG  3   5  -1  23   1  26  -1
M  END
>  <EmbedRMS>  (259) 
0.081703466755

$$$$

     RDKit          3D

 78 83  0  0  0  0  0  0  0  0999 V2000
   10.2806   43.7663   33.8249 C   0  0  0  0  0  0  0  0  0  0  0  0
   11.4112   43.5919   34.3668 O   0  0  0  0  0  0  0  0  0  0  0  0
    9.3622   42.7247   33.7341 O   0  0  0  0  0  0  0  0  0  0  0  0
    9.8905   41.2264   34.2935 P   0  0  0  0  0  0  0  0  0  0  0  0
   10.3732   41.4566   35.8830 O   0  0  0  0  0  0  0  0  0  0  0  0
    9.9460   45.0736   33.2113 C   0  0  1  0  0  0  0  0  0  0  0  0
   11.0268   46.0291   33.4708 N   0  0  0  0  0  0  0  0  0  0  0  0
    9.7539   44.8539   31.6950 C   0  0  0  0  0  0  0  0  0  0  0  0
    8.7957   45.8411   31.0848 C   0  0  0  0  0  0  0  0  0  0  0  0
    7.4092   45.5998   31.1001 C   0  0  0  0  0  0  0  0  0  0  0  0
    9.2826   46.9874   30.4392 C   0  0  0  0  0  0  0  0  0  0  0  0
    6.5287   46.5000   30.4847 C   0  0  0  0  0  0  0  0  0  0  0  0
    8.4021   47.8890   29.8296 C   0  0  0  0  0  0  0  0  0  0  0  0
    7.0121   47.6529   29.8505 C   0  0  0  0  0  0  0  0  0  0  0  0
    6.0786   48.5178   29.2553 O   0  0  0  0  0  0  0  0  0  0  0  0
    6.3610   49.7973   28.6825 C   0  0  2  0  0  0  0  0  0  0  0  0
    6.6434   50.8269   29.7854 C   0  0  0  0  0  0  0  0  0  0  0  0
    5.1687   50.2298   27.8472 C   0  0  0  0  0  0  0  0  0  0  0  0
    3.9066   50.3505   28.4814 C   0  0  0  0  0  0  0  0  0  0  0  0
    5.2829   50.5564   26.4542 C   0  0  0  0  0  0  0  0  0  0  0  0
    2.8326   50.8260   27.7406 C   0  0  0  0  0  0  0  0  0  0  0  0
    4.1593   51.0530   25.7566 C   0  0  0  0  0  0  0  0  0  0  0  0
    6.5073   50.3700   25.7308 N   0  0  0  0  0  0  0  0  0  0  0  0
    1.5302   51.0339   28.1521 O   0  0  0  0  0  0  0  0  0  0  0  0
    2.9551   51.1687   26.4378 C   0  0  0  0  0  0  0  0  0  0  0  0
    6.9064   51.3167   24.8164 O   0  0  0  0  0  0  0  0  0  0  0  0
    7.0521   49.2472   25.7110 O   0  0  0  0  0  0  0  0  0  0  0  0
    0.7884   51.5401   27.0339 C   0  0  0  0  0  0  0  0  0  0  0  0
    1.7363   51.6103   25.9599 O   0  0  0  0  0  0  0  0  0  0  0  0
    8.8130   40.1840   34.2124 O   0  0  0  0  0  0  0  0  0  0  0  0
   11.2419   40.7943   33.3695 O   0  0  0  0  0  0  0  0  0  0  0  0
   10.9188   40.6912   31.9969 C   0  0  0  0  0  0  0  0  0  0  0  0
   11.5173   39.3815   31.4407 C   0  0  0  0  0  0  0  0  0  0  0  0
   12.7493   39.0856   32.0729 O   0  0  0  0  0  0  0  0  0  0  0  0
   10.6023   38.1908   31.6666 C   0  0  0  0  0  0  0  0  0  0  0  0
   12.9319   37.6781   32.0281 C   0  0  0  0  0  0  0  0  0  0  0  0
    9.6392   38.0798   30.6453 O   0  0  0  0  0  0  0  0  0  0  0  0
   11.5715   37.0166   31.7055 C   0  0  0  0  0  0  0  0  0  0  0  0
   13.4847   37.2121   33.3235 N   0  0  0  0  0  0  0  0  0  0  0  0
   11.6186   36.3386   30.4693 O   0  0  0  0  0  0  0  0  0  0  0  0
   14.4800   36.3320   33.5724 C   0  0  0  0  0  0  0  0  0  0  0  0
   13.1138   37.6276   34.5687 C   0  0  0  0  0  0  0  0  0  0  0  0
   15.2073   35.6153   32.6739 N   0  0  0  0  0  0  0  0  0  0  0  0
   14.6757   36.2306   34.9180 C   0  0  0  0  0  0  0  0  0  0  0  0
   13.8216   37.0452   35.5781 N   0  0  0  0  0  0  0  0  0  0  0  0
   16.1640   34.7601   33.1547 C   0  0  0  0  0  0  0  0  0  0  0  0
   15.6524   35.3507   35.4130 C   0  0  0  0  0  0  0  0  0  0  0  0
   16.3793   34.6316   34.5042 N   0  0  0  0  0  0  0  0  0  0  0  0
   15.8998   35.1935   36.8090 N   0  0  0  0  0  0  0  0  0  0  0  0
    8.9997   45.4383   33.6726 H   0  0  0  0  0  0  0  0  0  0  0  0
   11.0503   46.2275   34.4982 H   0  0  0  0  0  0  0  0  0  0  0  0
   10.7765   46.9367   33.0156 H   0  0  0  0  0  0  0  0  0  0  0  0
    9.3645   43.8351   31.4712 H   0  0  0  0  0  0  0  0  0  0  0  0
   10.7411   44.9074   31.1837 H   0  0  0  0  0  0  0  0  0  0  0  0
    7.0139   44.7150   31.5836 H   0  0  0  0  0  0  0  0  0  0  0  0
   10.3471   47.1847   30.4036 H   0  0  0  0  0  0  0  0  0  0  0  0
    5.4644   46.3017   30.5038 H   0  0  0  0  0  0  0  0  0  0  0  0
    8.8196   48.7569   29.3411 H   0  0  0  0  0  0  0  0  0  0  0  0
    7.2674   49.7304   28.0537 H   0  0  0  0  0  0  0  0  0  0  0  0
    6.7743   51.8367   29.3407 H   0  0  0  0  0  0  0  0  0  0  0  0
    7.5740   50.5679   30.3303 H   0  0  0  0  0  0  0  0  0  0  0  0
    5.8127   50.8598   30.5212 H   0  0  0  0  0  0  0  0  0  0  0  0
    3.7692   50.0943   29.5241 H   0  0  0  0  0  0  0  0  0  0  0  0
    4.2180   51.3130   24.7075 H   0  0  0  0  0  0  0  0  0  0  0  0
    0.3923   52.5517   27.2622 H   0  0  0  0  0  0  0  0  0  0  0  0
   -0.0358   50.8439   26.7726 H   0  0  0  0  0  0  0  0  0  0  0  0
   11.3968   41.5462   31.4727 H   0  0  0  0  0  0  0  0  0  0  0  0
    9.8302   40.7413   31.7608 H   0  0  0  0  0  0  0  0  0  0  0  0
   11.6977   39.5066   30.3481 H   0  0  0  0  0  0  0  0  0  0  0  0
   10.1077   38.2646   32.6646 H   0  0  0  0  0  0  0  0  0  0  0  0
   13.6620   37.4467   31.2208 H   0  0  0  0  0  0  0  0  0  0  0  0
    8.8975   38.6944   30.8834 H   0  0  0  0  0  0  0  0  0  0  0  0
   11.2806   36.3074   32.5169 H   0  0  0  0  0  0  0  0  0  0  0  0
   10.8493   35.7110   30.4586 H   0  0  0  0  0  0  0  0  0  0  0  0
   12.3289   38.3523   34.7443 H   0  0  0  0  0  0  0  0  0  0  0  0
   16.7559   34.1779   32.4620 H   0  0  0  0  0  0  0  0  0  0  0  0
   16.6343   34.5301   37.1415 H   0  0  0  0  0  0  0  0  0  0  0  0
   15.3530   35.7362   37.5139 H   0  0  0  0  0  0  0  0  0  0  0  0
  1  2  2  0
  1  3  1  0
  3  4  1  0
  4  5  1  0
  6  1  1  0
  7  6  1  0
  6  8  1  0
  8  9  1  0
  9 10  2  0
 11  9  1  0
 10 12  1  0
 13 11  2  0
 12 14  2  0
 14 13  1  0
 14 15  1  0
 15 16  1  0
 16 17  1  0
 16 18  1  0
 18 19  2  0
 20 18  1  0
 19 21  1  0
 22 20  2  0
 20 23  1  0
 21 24  1  0
 21 25  2  0
 25 22  1  0
 23 26  1  0
 23 27  2  0
 24 28  1  0
 25 29  1  0
 28 29  1  0
  4 30  2  0
  4 31  1  0
 32 31  1  0
 32 33  1  0
 33 34  1  0
 33 35  1  0
 34 36  1  0
 35 37  1  0
 35 38  1  0
 38 36  1  0
 36 39  1  0
 38 40  1  0
 41 39  1  0
 42 39  1  0
 43 41  2  0
 41 44  1  0
 45 42  2  0
 46 43  1  0
 44 47  2  0
 44 45  1  0
 48 46  2  0
 48 47  1  0
 47 49  1  0
  6 50  1  1
  7 51  1  0
  7 52  1  0
  8 53  1  0
  8 54  1  0
 10 55  1  0
 11 56  1  0
 12 57  1  0
 13 58  1  0
 16 59  1  6
 17 60  1  0
 17 61  1  0
 17 62  1  0
 19 63  1  0
 22 64  1  0
 28 65  1  0
 28 66  1  0
 32 67  1  0
 32 68  1  0
 33 69  1  0
 35 70  1  0
 36 71  1  0
 37 72  1  0
 38 73  1  0
 40 74  1  0
 42 75  1  0
 46 76  1  0
 49 77  1  0
 49 78  1  0
M  CHG  3   5  -1  23   1  26  -1
M  END
>  <EmbedRMS>  (260) 
0.0827363084162

$$$$

     RDKit          3D

 78 83  0  0  0  0  0  0  0  0999 V2000
   10.2804   43.7664   33.8249 C   0  0  0  0  0  0  0  0  0  0  0  0
   11.4110   43.5919   34.3667 O   0  0  0  0  0  0  0  0  0  0  0  0
    9.3619   42.7249   33.7344 O   0  0  0  0  0  0  0  0  0  0  0  0
    9.8903   41.2265   34.2931 P   0  0  0  0  0  0  0  0  0  0  0  0
   10.3742   41.4563   35.8824 O   0  0  0  0  0  0  0  0  0  0  0  0
    9.9459   45.0736   33.2111 C   0  0  1  0  0  0  0  0  0  0  0  0
   11.0267   46.0291   33.4705 N   0  0  0  0  0  0  0  0  0  0  0  0
    9.7536   44.8538   31.6948 C   0  0  0  0  0  0  0  0  0  0  0  0
    8.7956   45.8408   31.0844 C   0  0  0  0  0  0  0  0  0  0  0  0
    7.4088   45.6007   31.1012 C   0  0  0  0  0  0  0  0  0  0  0  0
    9.2827   46.9878   30.4403 C   0  0  0  0  0  0  0  0  0  0  0  0
    6.5284   46.5016   30.4864 C   0  0  0  0  0  0  0  0  0  0  0  0
    8.4022   47.8897   29.8315 C   0  0  0  0  0  0  0  0  0  0  0  0
    7.0136   47.6502   29.8458 C   0  0  0  0  0  0  0  0  0  0  0  0
    6.0847   48.5155   29.2442 O   0  0  0  0  0  0  0  0  0  0  0  0
    6.4059   49.6677   28.4640 C   0  0  2  0  0  0  0  0  0  0  0  0
    5.1451   50.5063   28.2522 C   0  0  0  0  0  0  0  0  0  0  0  0
    7.0335   49.2802   27.1329 C   0  0  0  0  0  0  0  0  0  0  0  0
    8.2863   49.8501   26.7972 C   0  0  0  0  0  0  0  0  0  0  0  0
    6.3868   48.4147   26.1874 C   0  0  0  0  0  0  0  0  0  0  0  0
    8.8472   49.5467   25.5635 C   0  0  0  0  0  0  0  0  0  0  0  0
    6.9989   48.1532   24.9417 C   0  0  0  0  0  0  0  0  0  0  0  0
    5.1151   47.8140   26.4600 N   0  0  0  0  0  0  0  0  0  0  0  0
   10.0470   49.9827   25.0351 O   0  0  0  0  0  0  0  0  0  0  0  0
    8.2303   48.7353   24.6745 C   0  0  0  0  0  0  0  0  0  0  0  0
    5.0079   46.8578   27.4415 O   0  0  0  0  0  0  0  0  0  0  0  0
    4.1907   47.9297   25.6295 O   0  0  0  0  0  0  0  0  0  0  0  0
   10.1917   49.4050   23.7304 C   0  0  0  0  0  0  0  0  0  0  0  0
    9.0093   48.6162   23.5397 O   0  0  0  0  0  0  0  0  0  0  0  0
    8.8125   40.1844   34.2129 O   0  0  0  0  0  0  0  0  0  0  0  0
   11.2405   40.7948   33.3668 O   0  0  0  0  0  0  0  0  0  0  0  0
   10.9133   40.6866   31.9952 C   0  0  0  0  0  0  0  0  0  0  0  0
   11.5166   39.3787   31.4404 C   0  0  0  0  0  0  0  0  0  0  0  0
   12.7485   39.0849   32.0735 O   0  0  0  0  0  0  0  0  0  0  0  0
   10.6039   38.1884   31.6669 C   0  0  0  0  0  0  0  0  0  0  0  0
   12.9329   37.6776   32.0284 C   0  0  0  0  0  0  0  0  0  0  0  0
    9.6373   38.0938   30.6484 O   0  0  0  0  0  0  0  0  0  0  0  0
   11.5737   37.0140   31.7055 C   0  0  0  0  0  0  0  0  0  0  0  0
   13.4853   37.2120   33.3238 N   0  0  0  0  0  0  0  0  0  0  0  0
   11.6210   36.3379   30.4683 O   0  0  0  0  0  0  0  0  0  0  0  0
   14.4804   36.3319   33.5726 C   0  0  0  0  0  0  0  0  0  0  0  0
   13.1141   37.6275   34.5689 C   0  0  0  0  0  0  0  0  0  0  0  0
   15.2076   35.6152   32.6740 N   0  0  0  0  0  0  0  0  0  0  0  0
   14.6761   36.2306   34.9181 C   0  0  0  0  0  0  0  0  0  0  0  0
   13.8218   37.0451   35.5783 N   0  0  0  0  0  0  0  0  0  0  0  0
   16.1642   34.7600   33.1548 C   0  0  0  0  0  0  0  0  0  0  0  0
   15.6528   35.3506   35.4131 C   0  0  0  0  0  0  0  0  0  0  0  0
   16.3796   34.6315   34.5043 N   0  0  0  0  0  0  0  0  0  0  0  0
   15.9001   35.1933   36.8090 N   0  0  0  0  0  0  0  0  0  0  0  0
    8.9995   45.4382   33.6721 H   0  0  0  0  0  0  0  0  0  0  0  0
   10.7764   46.9368   33.0156 H   0  0  0  0  0  0  0  0  0  0  0  0
   11.0504   46.2277   34.4979 H   0  0  0  0  0  0  0  0  0  0  0  0
    9.3638   43.8351   31.4713 H   0  0  0  0  0  0  0  0  0  0  0  0
   10.7407   44.9070   31.1833 H   0  0  0  0  0  0  0  0  0  0  0  0
    7.0131   44.7166   31.5857 H   0  0  0  0  0  0  0  0  0  0  0  0
   10.3468   47.1876   30.4089 H   0  0  0  0  0  0  0  0  0  0  0  0
    5.4641   46.3040   30.5055 H   0  0  0  0  0  0  0  0  0  0  0  0
    8.8152   48.7670   29.3576 H   0  0  0  0  0  0  0  0  0  0  0  0
    7.1019   50.3071   29.0517 H   0  0  0  0  0  0  0  0  0  0  0  0
    5.3744   51.3915   27.6209 H   0  0  0  0  0  0  0  0  0  0  0  0
    4.7673   50.8643   29.2334 H   0  0  0  0  0  0  0  0  0  0  0  0
    4.3416   49.9144   27.7692 H   0  0  0  0  0  0  0  0  0  0  0  0
    8.8057   50.5187   27.4720 H   0  0  0  0  0  0  0  0  0  0  0  0
    6.5300   47.5071   24.2105 H   0  0  0  0  0  0  0  0  0  0  0  0
   11.0935   48.7586   23.6944 H   0  0  0  0  0  0  0  0  0  0  0  0
   10.2479   50.2034   22.9610 H   0  0  0  0  0  0  0  0  0  0  0  0
    9.8224   40.7224   31.7629 H   0  0  0  0  0  0  0  0  0  0  0  0
   11.3826   41.5437   31.4665 H   0  0  0  0  0  0  0  0  0  0  0  0
   11.6979   39.5035   30.3478 H   0  0  0  0  0  0  0  0  0  0  0  0
   10.1083   38.2786   32.6626 H   0  0  0  0  0  0  0  0  0  0  0  0
   13.6638   37.4473   31.2215 H   0  0  0  0  0  0  0  0  0  0  0  0
    8.9763   37.4190   30.9532 H   0  0  0  0  0  0  0  0  0  0  0  0
   11.2821   36.3054   32.5172 H   0  0  0  0  0  0  0  0  0  0  0  0
   10.8658   35.6935   30.4652 H   0  0  0  0  0  0  0  0  0  0  0  0
   12.3293   38.3523   34.7445 H   0  0  0  0  0  0  0  0  0  0  0  0
   16.7561   34.1778   32.4621 H   0  0  0  0  0  0  0  0  0  0  0  0
   15.3533   35.7361   37.5138 H   0  0  0  0  0  0  0  0  0  0  0  0
   16.6345   34.5300   37.1416 H   0  0  0  0  0  0  0  0  0  0  0  0
  1  2  2  0
  1  3  1  0
  3  4  1  0
  4  5  1  0
  6  1  1  0
  7  6  1  0
  6  8  1  0
  8  9  1  0
  9 10  2  0
 11  9  1  0
 10 12  1  0
 13 11  2  0
 12 14  2  0
 14 13  1  0
 14 15  1  0
 15 16  1  0
 16 17  1  0
 16 18  1  0
 18 19  2  0
 20 18  1  0
 19 21  1  0
 22 20  2  0
 20 23  1  0
 21 24  1  0
 21 25  2  0
 25 22  1  0
 23 26  1  0
 23 27  2  0
 24 28  1  0
 25 29  1  0
 28 29  1  0
  4 30  2  0
  4 31  1  0
 32 31  1  0
 32 33  1  0
 33 34  1  0
 33 35  1  0
 34 36  1  0
 35 37  1  0
 35 38  1  0
 38 36  1  0
 36 39  1  0
 38 40  1  0
 41 39  1  0
 42 39  1  0
 43 41  2  0
 41 44  1  0
 45 42  2  0
 46 43  1  0
 44 47  2  0
 44 45  1  0
 48 46  2  0
 48 47  1  0
 47 49  1  0
  6 50  1  1
  7 51  1  0
  7 52  1  0
  8 53  1  0
  8 54  1  0
 10 55  1  0
 11 56  1  0
 12 57  1  0
 13 58  1  0
 16 59  1  1
 17 60  1  0
 17 61  1  0
 17 62  1  0
 19 63  1  0
 22 64  1  0
 28 65  1  0
 28 66  1  0
 32 67  1  0
 32 68  1  0
 33 69  1  0
 35 70  1  0
 36 71  1  0
 37 72  1  0
 38 73  1  0
 40 74  1  0
 42 75  1  0
 46 76  1  0
 49 77  1  0
 49 78  1  0
M  CHG  3   5  -1  23   1  26  -1
M  END
>  <EmbedRMS>  (261) 
0.0823914505521

$$$$

     RDKit          3D

 78 83  0  0  0  0  0  0  0  0999 V2000
   10.2837   43.7628   33.8273 C   0  0  0  0  0  0  0  0  0  0  0  0
   11.4101   43.5865   34.3764 O   0  0  0  0  0  0  0  0  0  0  0  0
    9.3628   42.7238   33.7355 O   0  0  0  0  0  0  0  0  0  0  0  0
    9.8890   41.2252   34.2948 P   0  0  0  0  0  0  0  0  0  0  0  0
   10.3724   41.4549   35.8842 O   0  0  0  0  0  0  0  0  0  0  0  0
    9.9547   45.0700   33.2058 C   0  0  1  0  0  0  0  0  0  0  0  0
   11.0197   46.0481   33.4564 N   0  0  0  0  0  0  0  0  0  0  0  0
    9.7499   44.8510   31.6916 C   0  0  0  0  0  0  0  0  0  0  0  0
    8.7940   45.8418   31.0860 C   0  0  0  0  0  0  0  0  0  0  0  0
    7.4057   45.6014   31.1013 C   0  0  0  0  0  0  0  0  0  0  0  0
    9.2835   46.9911   30.4454 C   0  0  0  0  0  0  0  0  0  0  0  0
    6.5255   46.5035   30.4872 C   0  0  0  0  0  0  0  0  0  0  0  0
    8.4020   47.8918   29.8356 C   0  0  0  0  0  0  0  0  0  0  0  0
    7.0213   47.6451   29.8433 C   0  0  0  0  0  0  0  0  0  0  0  0
    6.1371   48.5434   29.2405 O   0  0  0  0  0  0  0  0  0  0  0  0
    5.8630   48.5731   27.8361 C   0  0  2  0  0  0  0  0  0  0  0  0
    4.9882   47.3854   27.4141 C   0  0  0  0  0  0  0  0  0  0  0  0
    7.1318   48.7980   27.0148 C   0  0  0  0  0  0  0  0  0  0  0  0
    7.5742   50.1388   26.8900 C   0  0  0  0  0  0  0  0  0  0  0  0
    7.8990   47.7577   26.3824 C   0  0  0  0  0  0  0  0  0  0  0  0
    8.7107   50.4032   26.1376 C   0  0  0  0  0  0  0  0  0  0  0  0
    9.0380   48.0884   25.6175 C   0  0  0  0  0  0  0  0  0  0  0  0
    7.5592   46.3751   26.5040 N   0  0  0  0  0  0  0  0  0  0  0  0
    9.3076   51.6230   25.8827 O   0  0  0  0  0  0  0  0  0  0  0  0
    9.4094   49.4217   25.5247 C   0  0  0  0  0  0  0  0  0  0  0  0
    7.2871   45.6503   25.3675 O   0  0  0  0  0  0  0  0  0  0  0  0
    7.8334   45.7655   27.5571 O   0  0  0  0  0  0  0  0  0  0  0  0
   10.4554   51.3893   25.0552 C   0  0  0  0  0  0  0  0  0  0  0  0
   10.4834   49.9701   24.8506 O   0  0  0  0  0  0  0  0  0  0  0  0
    8.8112   40.1834   34.2131 O   0  0  0  0  0  0  0  0  0  0  0  0
   11.2398   40.7938   33.3702 O   0  0  0  0  0  0  0  0  0  0  0  0
   10.9144   40.6912   31.9983 C   0  0  0  0  0  0  0  0  0  0  0  0
   11.5270   39.3911   31.4385 C   0  0  0  0  0  0  0  0  0  0  0  0
   12.7520   39.0911   32.0835 O   0  0  0  0  0  0  0  0  0  0  0  0
   10.6113   38.1932   31.6451 C   0  0  0  0  0  0  0  0  0  0  0  0
   12.9413   37.6837   32.0297 C   0  0  0  0  0  0  0  0  0  0  0  0
    9.6064   38.0877   30.6599 O   0  0  0  0  0  0  0  0  0  0  0  0
   11.5822   37.0197   31.6876 C   0  0  0  0  0  0  0  0  0  0  0  0
   13.4840   37.2104   33.3254 N   0  0  0  0  0  0  0  0  0  0  0  0
   11.6179   36.3071   30.4690 O   0  0  0  0  0  0  0  0  0  0  0  0
   14.4797   36.3309   33.5738 C   0  0  0  0  0  0  0  0  0  0  0  0
   13.1136   37.6269   34.5702 C   0  0  0  0  0  0  0  0  0  0  0  0
   15.2074   35.6152   32.6747 N   0  0  0  0  0  0  0  0  0  0  0  0
   14.6756   36.2298   34.9190 C   0  0  0  0  0  0  0  0  0  0  0  0
   13.8217   37.0445   35.5793 N   0  0  0  0  0  0  0  0  0  0  0  0
   16.1643   34.7603   33.1551 C   0  0  0  0  0  0  0  0  0  0  0  0
   15.6528   35.3503   35.4136 C   0  0  0  0  0  0  0  0  0  0  0  0
   16.3798   34.6316   34.5046 N   0  0  0  0  0  0  0  0  0  0  0  0
   15.9004   35.1930   36.8094 N   0  0  0  0  0  0  0  0  0  0  0  0
    9.0097   45.4351   33.6664 H   0  0  0  0  0  0  0  0  0  0  0  0
   11.1133   46.1992   34.4877 H   0  0  0  0  0  0  0  0  0  0  0  0
   11.9347   45.6933   33.0919 H   0  0  0  0  0  0  0  0  0  0  0  0
   10.7301   44.8926   31.1666 H   0  0  0  0  0  0  0  0  0  0  0  0
    9.3507   43.8345   31.4755 H   0  0  0  0  0  0  0  0  0  0  0  0
    7.0093   44.7173   31.5850 H   0  0  0  0  0  0  0  0  0  0  0  0
   10.3472   47.1927   30.4189 H   0  0  0  0  0  0  0  0  0  0  0  0
    5.4603   46.3118   30.5057 H   0  0  0  0  0  0  0  0  0  0  0  0
    8.7933   48.7801   29.3571 H   0  0  0  0  0  0  0  0  0  0  0  0
    5.2133   49.4603   27.6651 H   0  0  0  0  0  0  0  0  0  0  0  0
    5.3801   46.4259   27.8030 H   0  0  0  0  0  0  0  0  0  0  0  0
    4.9013   47.3395   26.3077 H   0  0  0  0  0  0  0  0  0  0  0  0
    3.9680   47.5111   27.8356 H   0  0  0  0  0  0  0  0  0  0  0  0
    7.0439   50.9554   27.3642 H   0  0  0  0  0  0  0  0  0  0  0  0
    9.6256   47.3222   25.1280 H   0  0  0  0  0  0  0  0  0  0  0  0
   11.3783   51.7195   25.5765 H   0  0  0  0  0  0  0  0  0  0  0  0
   10.3418   51.9144   24.0837 H   0  0  0  0  0  0  0  0  0  0  0  0
    9.8235   40.7202   31.7651 H   0  0  0  0  0  0  0  0  0  0  0  0
   11.3780   41.5548   31.4750 H   0  0  0  0  0  0  0  0  0  0  0  0
   11.7311   39.5363   30.3531 H   0  0  0  0  0  0  0  0  0  0  0  0
   10.1203   38.2696   32.6410 H   0  0  0  0  0  0  0  0  0  0  0  0
   13.6850   37.4638   31.2321 H   0  0  0  0  0  0  0  0  0  0  0  0
   10.0250   38.1791   29.7654 H   0  0  0  0  0  0  0  0  0  0  0  0
   11.2757   36.3135   32.4907 H   0  0  0  0  0  0  0  0  0  0  0  0
   11.9837   36.9111   29.7708 H   0  0  0  0  0  0  0  0  0  0  0  0
   12.3307   38.3536   34.7457 H   0  0  0  0  0  0  0  0  0  0  0  0
   16.7566   34.1787   32.4623 H   0  0  0  0  0  0  0  0  0  0  0  0
   15.3535   35.7355   37.5144 H   0  0  0  0  0  0  0  0  0  0  0  0
   16.6353   34.5301   37.1419 H   0  0  0  0  0  0  0  0  0  0  0  0
  1  2  2  0
  1  3  1  0
  3  4  1  0
  4  5  1  0
  6  1  1  0
  7  6  1  0
  6  8  1  0
  8  9  1  0
  9 10  2  0
 11  9  1  0
 10 12  1  0
 13 11  2  0
 12 14  2  0
 14 13  1  0
 14 15  1  0
 15 16  1  0
 16 17  1  0
 16 18  1  0
 18 19  2  0
 20 18  1  0
 19 21  1  0
 22 20  2  0
 20 23  1  0
 21 24  1  0
 21 25  2  0
 25 22  1  0
 23 26  1  0
 23 27  2  0
 24 28  1  0
 25 29  1  0
 28 29  1  0
  4 30  2  0
  4 31  1  0
 32 31  1  0
 32 33  1  0
 33 34  1  0
 33 35  1  0
 34 36  1  0
 35 37  1  0
 35 38  1  0
 38 36  1  0
 36 39  1  0
 38 40  1  0
 41 39  1  0
 42 39  1  0
 43 41  2  0
 41 44  1  0
 45 42  2  0
 46 43  1  0
 44 47  2  0
 44 45  1  0
 48 46  2  0
 48 47  1  0
 47 49  1  0
  6 50  1  1
  7 51  1  0
  7 52  1  0
  8 53  1  0
  8 54  1  0
 10 55  1  0
 11 56  1  0
 12 57  1  0
 13 58  1  0
 16 59  1  1
 17 60  1  0
 17 61  1  0
 17 62  1  0
 19 63  1  0
 22 64  1  0
 28 65  1  0
 28 66  1  0
 32 67  1  0
 32 68  1  0
 33 69  1  0
 35 70  1  0
 36 71  1  0
 37 72  1  0
 38 73  1  0
 40 74  1  0
 42 75  1  0
 46 76  1  0
 49 77  1  0
 49 78  1  0
M  CHG  3   5  -1  23   1  26  -1
M  END
>  <EmbedRMS>  (262) 
0.0818689395835

$$$$

     RDKit          3D

 78 83  0  0  0  0  0  0  0  0999 V2000
   10.2839   43.7626   33.8276 C   0  0  0  0  0  0  0  0  0  0  0  0
   11.4103   43.5863   34.3766 O   0  0  0  0  0  0  0  0  0  0  0  0
    9.3631   42.7236   33.7353 O   0  0  0  0  0  0  0  0  0  0  0  0
    9.8898   41.2247   34.2935 P   0  0  0  0  0  0  0  0  0  0  0  0
   10.3734   41.4543   35.8829 O   0  0  0  0  0  0  0  0  0  0  0  0
    9.9549   45.0700   33.2063 C   0  0  1  0  0  0  0  0  0  0  0  0
   11.0198   46.0481   33.4571 N   0  0  0  0  0  0  0  0  0  0  0  0
    9.7507   44.8510   31.6922 C   0  0  0  0  0  0  0  0  0  0  0  0
    8.7945   45.8417   31.0867 C   0  0  0  0  0  0  0  0  0  0  0  0
    7.4079   45.6007   31.1005 C   0  0  0  0  0  0  0  0  0  0  0  0
    9.2827   46.9892   30.4449 C   0  0  0  0  0  0  0  0  0  0  0  0
    6.5254   46.5001   30.4859 C   0  0  0  0  0  0  0  0  0  0  0  0
    8.4009   47.8882   29.8340 C   0  0  0  0  0  0  0  0  0  0  0  0
    7.0191   47.6552   29.8441 C   0  0  0  0  0  0  0  0  0  0  0  0
    6.1869   48.5965   29.2150 O   0  0  0  0  0  0  0  0  0  0  0  0
    4.7704   48.4844   29.0364 C   0  0  2  0  0  0  0  0  0  0  0  0
    4.4636   47.4695   27.9295 C   0  0  0  0  0  0  0  0  0  0  0  0
    4.1719   49.8355   28.6713 C   0  0  0  0  0  0  0  0  0  0  0  0
    5.0065   50.8427   28.1192 C   0  0  0  0  0  0  0  0  0  0  0  0
    2.7605   50.0853   28.7774 C   0  0  0  0  0  0  0  0  0  0  0  0
    4.4282   52.0370   27.7099 C   0  0  0  0  0  0  0  0  0  0  0  0
    2.2291   51.3148   28.3288 C   0  0  0  0  0  0  0  0  0  0  0  0
    1.8549   49.1063   29.3082 N   0  0  0  0  0  0  0  0  0  0  0  0
    5.0433   53.1416   27.1524 O   0  0  0  0  0  0  0  0  0  0  0  0
    3.0988   52.2626   27.8090 C   0  0  0  0  0  0  0  0  0  0  0  0
    0.6356   48.9118   28.7014 O   0  0  0  0  0  0  0  0  0  0  0  0
    2.0426   48.6279   30.4451 O   0  0  0  0  0  0  0  0  0  0  0  0
    4.0328   54.1243   26.8881 C   0  0  0  0  0  0  0  0  0  0  0  0
    2.8059   53.5219   27.3219 O   0  0  0  0  0  0  0  0  0  0  0  0
    8.8114   40.1834   34.2126 O   0  0  0  0  0  0  0  0  0  0  0  0
   11.2402   40.7936   33.3673 O   0  0  0  0  0  0  0  0  0  0  0  0
   10.9134   40.6864   31.9955 C   0  0  0  0  0  0  0  0  0  0  0  0
   11.5166   39.3786   31.4404 C   0  0  0  0  0  0  0  0  0  0  0  0
   12.7486   39.0848   32.0734 O   0  0  0  0  0  0  0  0  0  0  0  0
   10.6039   38.1883   31.6669 C   0  0  0  0  0  0  0  0  0  0  0  0
   12.9329   37.6775   32.0284 C   0  0  0  0  0  0  0  0  0  0  0  0
    9.6373   38.0938   30.6484 O   0  0  0  0  0  0  0  0  0  0  0  0
   11.5737   37.0140   31.7055 C   0  0  0  0  0  0  0  0  0  0  0  0
   13.4853   37.2120   33.3238 N   0  0  0  0  0  0  0  0  0  0  0  0
   11.6210   36.3379   30.4683 O   0  0  0  0  0  0  0  0  0  0  0  0
   14.4804   36.3319   33.5726 C   0  0  0  0  0  0  0  0  0  0  0  0
   13.1141   37.6275   34.5689 C   0  0  0  0  0  0  0  0  0  0  0  0
   15.2076   35.6152   32.6740 N   0  0  0  0  0  0  0  0  0  0  0  0
   14.6761   36.2307   34.9181 C   0  0  0  0  0  0  0  0  0  0  0  0
   13.8218   37.0451   35.5783 N   0  0  0  0  0  0  0  0  0  0  0  0
   16.1642   34.7600   33.1548 C   0  0  0  0  0  0  0  0  0  0  0  0
   15.6528   35.3507   35.4131 C   0  0  0  0  0  0  0  0  0  0  0  0
   16.3795   34.6315   34.5043 N   0  0  0  0  0  0  0  0  0  0  0  0
   15.9000   35.1933   36.8090 N   0  0  0  0  0  0  0  0  0  0  0  0
    9.0099   45.4348   33.6668 H   0  0  0  0  0  0  0  0  0  0  0  0
   11.1132   46.1992   34.4884 H   0  0  0  0  0  0  0  0  0  0  0  0
   11.9350   45.6933   33.0929 H   0  0  0  0  0  0  0  0  0  0  0  0
    9.3520   43.8344   31.4758 H   0  0  0  0  0  0  0  0  0  0  0  0
   10.7311   44.8931   31.1676 H   0  0  0  0  0  0  0  0  0  0  0  0
    7.0130   44.7157   31.5842 H   0  0  0  0  0  0  0  0  0  0  0  0
   10.3466   47.1897   30.4157 H   0  0  0  0  0  0  0  0  0  0  0  0
    5.4680   46.2825   30.5215 H   0  0  0  0  0  0  0  0  0  0  0  0
    8.7941   48.7708   29.3454 H   0  0  0  0  0  0  0  0  0  0  0  0
    4.3312   48.1491   29.9943 H   0  0  0  0  0  0  0  0  0  0  0  0
    4.8993   47.8108   26.9660 H   0  0  0  0  0  0  0  0  0  0  0  0
    4.8939   46.4777   28.1761 H   0  0  0  0  0  0  0  0  0  0  0  0
    3.3672   47.3466   27.8056 H   0  0  0  0  0  0  0  0  0  0  0  0
    6.0712   50.7010   27.9884 H   0  0  0  0  0  0  0  0  0  0  0  0
    1.1696   51.5271   28.3947 H   0  0  0  0  0  0  0  0  0  0  0  0
    4.2333   55.0478   27.4708 H   0  0  0  0  0  0  0  0  0  0  0  0
    3.9876   54.3459   25.8012 H   0  0  0  0  0  0  0  0  0  0  0  0
    9.8226   40.7225   31.7629 H   0  0  0  0  0  0  0  0  0  0  0  0
   11.3831   41.5438   31.4675 H   0  0  0  0  0  0  0  0  0  0  0  0
   11.6978   39.5037   30.3477 H   0  0  0  0  0  0  0  0  0  0  0  0
   10.1084   38.2785   32.6626 H   0  0  0  0  0  0  0  0  0  0  0  0
   13.6638   37.4471   31.2214 H   0  0  0  0  0  0  0  0  0  0  0  0
    8.9763   37.4190   30.9532 H   0  0  0  0  0  0  0  0  0  0  0  0
   11.2821   36.3053   32.5171 H   0  0  0  0  0  0  0  0  0  0  0  0
   10.8658   35.6935   30.4652 H   0  0  0  0  0  0  0  0  0  0  0  0
   12.3293   38.3523   34.7444 H   0  0  0  0  0  0  0  0  0  0  0  0
   16.7561   34.1778   32.4621 H   0  0  0  0  0  0  0  0  0  0  0  0
   16.6345   34.5300   37.1416 H   0  0  0  0  0  0  0  0  0  0  0  0
   15.3533   35.7361   37.5138 H   0  0  0  0  0  0  0  0  0  0  0  0
  1  2  2  0
  1  3  1  0
  3  4  1  0
  4  5  1  0
  6  1  1  0
  7  6  1  0
  6  8  1  0
  8  9  1  0
  9 10  2  0
 11  9  1  0
 10 12  1  0
 13 11  2  0
 12 14  2  0
 14 13  1  0
 14 15  1  0
 15 16  1  0
 16 17  1  0
 16 18  1  0
 18 19  2  0
 20 18  1  0
 19 21  1  0
 22 20  2  0
 20 23  1  0
 21 24  1  0
 21 25  2  0
 25 22  1  0
 23 26  1  0
 23 27  2  0
 24 28  1  0
 25 29  1  0
 28 29  1  0
  4 30  2  0
  4 31  1  0
 32 31  1  0
 32 33  1  0
 33 34  1  0
 33 35  1  0
 34 36  1  0
 35 37  1  0
 35 38  1  0
 38 36  1  0
 36 39  1  0
 38 40  1  0
 41 39  1  0
 42 39  1  0
 43 41  2  0
 41 44  1  0
 45 42  2  0
 46 43  1  0
 44 47  2  0
 44 45  1  0
 48 46  2  0
 48 47  1  0
 47 49  1  0
  6 50  1  1
  7 51  1  0
  7 52  1  0
  8 53  1  0
  8 54  1  0
 10 55  1  0
 11 56  1  0
 12 57  1  0
 13 58  1  0
 16 59  1  1
 17 60  1  0
 17 61  1  0
 17 62  1  0
 19 63  1  0
 22 64  1  0
 28 65  1  0
 28 66  1  0
 32 67  1  0
 32 68  1  0
 33 69  1  0
 35 70  1  0
 36 71  1  0
 37 72  1  0
 38 73  1  0
 40 74  1  0
 42 75  1  0
 46 76  1  0
 49 77  1  0
 49 78  1  0
M  CHG  3   5  -1  23   1  26  -1
M  END
>  <EmbedRMS>  (263) 
0.0834335159941

$$$$

     RDKit          3D

 78 83  0  0  0  0  0  0  0  0999 V2000
   10.2834   43.7662   33.8256 C   0  0  0  0  0  0  0  0  0  0  0  0
   11.4102   43.5930   34.3752 O   0  0  0  0  0  0  0  0  0  0  0  0
    9.3637   42.7255   33.7349 O   0  0  0  0  0  0  0  0  0  0  0  0
    9.8903   41.2267   34.2942 P   0  0  0  0  0  0  0  0  0  0  0  0
   10.3735   41.4561   35.8837 O   0  0  0  0  0  0  0  0  0  0  0  0
    9.9547   45.0696   33.2036 C   0  0  1  0  0  0  0  0  0  0  0  0
   11.0272   46.0323   33.4760 N   0  0  0  0  0  0  0  0  0  0  0  0
    9.7471   44.8485   31.6876 C   0  0  0  0  0  0  0  0  0  0  0  0
    8.7925   45.8410   31.0845 C   0  0  0  0  0  0  0  0  0  0  0  0
    7.4059   45.6007   31.0991 C   0  0  0  0  0  0  0  0  0  0  0  0
    9.2817   46.9877   30.4414 C   0  0  0  0  0  0  0  0  0  0  0  0
    6.5246   46.5003   30.4843 C   0  0  0  0  0  0  0  0  0  0  0  0
    8.4005   47.8879   29.8316 C   0  0  0  0  0  0  0  0  0  0  0  0
    7.0186   47.6576   29.8478 C   0  0  0  0  0  0  0  0  0  0  0  0
    6.1808   48.5978   29.2257 O   0  0  0  0  0  0  0  0  0  0  0  0
    4.7509   48.5638   29.2350 C   0  0  2  0  0  0  0  0  0  0  0  0
    4.2278   49.6273   28.2712 C   0  0  0  0  0  0  0  0  0  0  0  0
    4.2195   48.8247   30.6347 C   0  0  0  0  0  0  0  0  0  0  0  0
    4.8156   49.8550   31.4028 C   0  0  0  0  0  0  0  0  0  0  0  0
    3.1780   48.0283   31.2177 C   0  0  0  0  0  0  0  0  0  0  0  0
    4.3959   50.0322   32.7143 C   0  0  0  0  0  0  0  0  0  0  0  0
    2.8047   48.2445   32.5634 C   0  0  0  0  0  0  0  0  0  0  0  0
    2.4868   47.0180   30.4671 N   0  0  0  0  0  0  0  0  0  0  0  0
    4.8419   50.9540   33.6418 O   0  0  0  0  0  0  0  0  0  0  0  0
    3.4371   49.2576   33.2718 C   0  0  0  0  0  0  0  0  0  0  0  0
    2.0760   45.8635   31.0926 O   0  0  0  0  0  0  0  0  0  0  0  0
    2.0506   47.2716   29.3255 O   0  0  0  0  0  0  0  0  0  0  0  0
    4.1143   50.7436   34.8596 C   0  0  0  0  0  0  0  0  0  0  0  0
    3.2278   49.6516   34.5794 O   0  0  0  0  0  0  0  0  0  0  0  0
    8.8121   40.1850   34.2131 O   0  0  0  0  0  0  0  0  0  0  0  0
   11.2407   40.7940   33.3693 O   0  0  0  0  0  0  0  0  0  0  0  0
   10.9151   40.6905   31.9974 C   0  0  0  0  0  0  0  0  0  0  0  0
   11.5252   39.3886   31.4375 C   0  0  0  0  0  0  0  0  0  0  0  0
   12.7500   39.0874   32.0799 O   0  0  0  0  0  0  0  0  0  0  0  0
   10.6092   38.1926   31.6470 C   0  0  0  0  0  0  0  0  0  0  0  0
   12.9332   37.6793   32.0294 C   0  0  0  0  0  0  0  0  0  0  0  0
    9.6122   38.0895   30.6542 O   0  0  0  0  0  0  0  0  0  0  0  0
   11.5743   37.0145   31.7024 C   0  0  0  0  0  0  0  0  0  0  0  0
   13.4844   37.2108   33.3241 N   0  0  0  0  0  0  0  0  0  0  0  0
   11.6297   36.3239   30.4740 O   0  0  0  0  0  0  0  0  0  0  0  0
   14.4802   36.3313   33.5727 C   0  0  0  0  0  0  0  0  0  0  0  0
   13.1138   37.6266   34.5692 C   0  0  0  0  0  0  0  0  0  0  0  0
   15.2075   35.6149   32.6739 N   0  0  0  0  0  0  0  0  0  0  0  0
   14.6761   36.2303   34.9181 C   0  0  0  0  0  0  0  0  0  0  0  0
   13.8220   37.0447   35.5785 N   0  0  0  0  0  0  0  0  0  0  0  0
   16.1643   34.7600   33.1547 C   0  0  0  0  0  0  0  0  0  0  0  0
   15.6529   35.3505   35.4130 C   0  0  0  0  0  0  0  0  0  0  0  0
   16.3798   34.6315   34.5042 N   0  0  0  0  0  0  0  0  0  0  0  0
   15.9003   35.1932   36.8090 N   0  0  0  0  0  0  0  0  0  0  0  0
    9.0119   45.4317   33.6712 H   0  0  0  0  0  0  0  0  0  0  0  0
   10.7258   46.9689   33.1216 H   0  0  0  0  0  0  0  0  0  0  0  0
   11.8907   45.7661   32.9476 H   0  0  0  0  0  0  0  0  0  0  0  0
    9.3426   43.8332   31.4758 H   0  0  0  0  0  0  0  0  0  0  0  0
   10.7236   44.8826   31.1558 H   0  0  0  0  0  0  0  0  0  0  0  0
    7.0103   44.7148   31.5806 H   0  0  0  0  0  0  0  0  0  0  0  0
   10.3460   47.1860   30.4096 H   0  0  0  0  0  0  0  0  0  0  0  0
    5.4669   46.2820   30.5097 H   0  0  0  0  0  0  0  0  0  0  0  0
    8.7935   48.7707   29.3434 H   0  0  0  0  0  0  0  0  0  0  0  0
    4.4282   47.5752   28.8489 H   0  0  0  0  0  0  0  0  0  0  0  0
    3.1171   49.6240   28.2573 H   0  0  0  0  0  0  0  0  0  0  0  0
    4.5936   49.4146   27.2443 H   0  0  0  0  0  0  0  0  0  0  0  0
    4.5830   50.6364   28.5712 H   0  0  0  0  0  0  0  0  0  0  0  0
    5.5991   50.4825   30.9972 H   0  0  0  0  0  0  0  0  0  0  0  0
    2.0272   47.6568   33.0342 H   0  0  0  0  0  0  0  0  0  0  0  0
    4.8103   50.4711   35.6806 H   0  0  0  0  0  0  0  0  0  0  0  0
    3.5324   51.6521   35.1212 H   0  0  0  0  0  0  0  0  0  0  0  0
    9.8242   40.7216   31.7643 H   0  0  0  0  0  0  0  0  0  0  0  0
   11.3801   41.5529   31.4733 H   0  0  0  0  0  0  0  0  0  0  0  0
   11.7266   39.5311   30.3513 H   0  0  0  0  0  0  0  0  0  0  0  0
   10.1110   38.2747   32.6387 H   0  0  0  0  0  0  0  0  0  0  0  0
   13.6652   37.4519   31.2226 H   0  0  0  0  0  0  0  0  0  0  0  0
   10.0512   38.1143   29.7645 H   0  0  0  0  0  0  0  0  0  0  0  0
   11.2762   36.3141   32.5189 H   0  0  0  0  0  0  0  0  0  0  0  0
   10.8593   35.6978   30.4640 H   0  0  0  0  0  0  0  0  0  0  0  0
   12.3294   38.3518   34.7449 H   0  0  0  0  0  0  0  0  0  0  0  0
   16.7564   34.1780   32.4620 H   0  0  0  0  0  0  0  0  0  0  0  0
   16.6348   34.5300   37.1415 H   0  0  0  0  0  0  0  0  0  0  0  0
   15.3534   35.7359   37.5138 H   0  0  0  0  0  0  0  0  0  0  0  0
  1  2  2  0
  1  3  1  0
  3  4  1  0
  4  5  1  0
  6  1  1  0
  7  6  1  0
  6  8  1  0
  8  9  1  0
  9 10  2  0
 11  9  1  0
 10 12  1  0
 13 11  2  0
 12 14  2  0
 14 13  1  0
 14 15  1  0
 15 16  1  0
 16 17  1  0
 16 18  1  0
 18 19  2  0
 20 18  1  0
 19 21  1  0
 22 20  2  0
 20 23  1  0
 21 24  1  0
 21 25  2  0
 25 22  1  0
 23 26  1  0
 23 27  2  0
 24 28  1  0
 25 29  1  0
 28 29  1  0
  4 30  2  0
  4 31  1  0
 32 31  1  0
 32 33  1  0
 33 34  1  0
 33 35  1  0
 34 36  1  0
 35 37  1  0
 35 38  1  0
 38 36  1  0
 36 39  1  0
 38 40  1  0
 41 39  1  0
 42 39  1  0
 43 41  2  0
 41 44  1  0
 45 42  2  0
 46 43  1  0
 44 47  2  0
 44 45  1  0
 48 46  2  0
 48 47  1  0
 47 49  1  0
  6 50  1  1
  7 51  1  0
  7 52  1  0
  8 53  1  0
  8 54  1  0
 10 55  1  0
 11 56  1  0
 12 57  1  0
 13 58  1  0
 16 59  1  6
 17 60  1  0
 17 61  1  0
 17 62  1  0
 19 63  1  0
 22 64  1  0
 28 65  1  0
 28 66  1  0
 32 67  1  0
 32 68  1  0
 33 69  1  0
 35 70  1  0
 36 71  1  0
 37 72  1  0
 38 73  1  0
 40 74  1  0
 42 75  1  0
 46 76  1  0
 49 77  1  0
 49 78  1  0
M  CHG  3   5  -1  23   1  26  -1
M  END
>  <EmbedRMS>  (264) 
0.0818083665689

$$$$

     RDKit          3D

 78 83  0  0  0  0  0  0  0  0999 V2000
   10.2835   43.7630   33.8277 C   0  0  0  0  0  0  0  0  0  0  0  0
   11.4101   43.5866   34.3765 O   0  0  0  0  0  0  0  0  0  0  0  0
    9.3627   42.7239   33.7356 O   0  0  0  0  0  0  0  0  0  0  0  0
    9.8890   41.2253   34.2948 P   0  0  0  0  0  0  0  0  0  0  0  0
   10.3723   41.4549   35.8842 O   0  0  0  0  0  0  0  0  0  0  0  0
    9.9543   45.0705   33.2065 C   0  0  1  0  0  0  0  0  0  0  0  0
   11.0193   46.0486   33.4571 N   0  0  0  0  0  0  0  0  0  0  0  0
    9.7500   44.8516   31.6925 C   0  0  0  0  0  0  0  0  0  0  0  0
    8.7940   45.8424   31.0871 C   0  0  0  0  0  0  0  0  0  0  0  0
    7.4063   45.5993   31.0987 C   0  0  0  0  0  0  0  0  0  0  0  0
    9.2835   46.9894   30.4419 C   0  0  0  0  0  0  0  0  0  0  0  0
    6.5263   46.4990   30.4816 C   0  0  0  0  0  0  0  0  0  0  0  0
    8.4019   47.8881   29.8289 C   0  0  0  0  0  0  0  0  0  0  0  0
    7.0211   47.6541   29.8576 C   0  0  0  0  0  0  0  0  0  0  0  0
    6.1488   48.5560   29.2430 O   0  0  0  0  0  0  0  0  0  0  0  0
    5.4191   49.5654   29.9481 C   0  0  2  0  0  0  0  0  0  0  0  0
    6.3378   50.7141   30.3842 C   0  0  0  0  0  0  0  0  0  0  0  0
    4.5310   48.9665   31.0380 C   0  0  0  0  0  0  0  0  0  0  0  0
    3.2776   48.4527   30.6209 C   0  0  0  0  0  0  0  0  0  0  0  0
    4.8836   48.8765   32.4303 C   0  0  0  0  0  0  0  0  0  0  0  0
    2.4241   47.9109   31.5727 C   0  0  0  0  0  0  0  0  0  0  0  0
    3.9691   48.3280   33.3546 C   0  0  0  0  0  0  0  0  0  0  0  0
    6.1471   49.3192   32.9293 N   0  0  0  0  0  0  0  0  0  0  0  0
    1.1681   47.3653   31.3889 O   0  0  0  0  0  0  0  0  0  0  0  0
    2.7537   47.8548   32.8824 C   0  0  0  0  0  0  0  0  0  0  0  0
    6.1806   50.3166   33.8753 O   0  0  0  0  0  0  0  0  0  0  0  0
    7.1547   48.6004   32.7744 O   0  0  0  0  0  0  0  0  0  0  0  0
    0.6792   46.9401   32.6684 C   0  0  0  0  0  0  0  0  0  0  0  0
    1.7231   47.2715   33.5941 O   0  0  0  0  0  0  0  0  0  0  0  0
    8.8112   40.1835   34.2131 O   0  0  0  0  0  0  0  0  0  0  0  0
   11.2397   40.7939   33.3702 O   0  0  0  0  0  0  0  0  0  0  0  0
   10.9144   40.6912   31.9983 C   0  0  0  0  0  0  0  0  0  0  0  0
   11.5270   39.3911   31.4385 C   0  0  0  0  0  0  0  0  0  0  0  0
   12.7520   39.0911   32.0836 O   0  0  0  0  0  0  0  0  0  0  0  0
   10.6113   38.1931   31.6451 C   0  0  0  0  0  0  0  0  0  0  0  0
   12.9413   37.6838   32.0297 C   0  0  0  0  0  0  0  0  0  0  0  0
    9.6064   38.0877   30.6599 O   0  0  0  0  0  0  0  0  0  0  0  0
   11.5822   37.0197   31.6876 C   0  0  0  0  0  0  0  0  0  0  0  0
   13.4840   37.2104   33.3254 N   0  0  0  0  0  0  0  0  0  0  0  0
   11.6179   36.3072   30.4690 O   0  0  0  0  0  0  0  0  0  0  0  0
   14.4797   36.3309   33.5738 C   0  0  0  0  0  0  0  0  0  0  0  0
   13.1136   37.6269   34.5702 C   0  0  0  0  0  0  0  0  0  0  0  0
   15.2074   35.6152   32.6747 N   0  0  0  0  0  0  0  0  0  0  0  0
   14.6756   36.2298   34.9190 C   0  0  0  0  0  0  0  0  0  0  0  0
   13.8217   37.0445   35.5793 N   0  0  0  0  0  0  0  0  0  0  0  0
   16.1643   34.7603   33.1551 C   0  0  0  0  0  0  0  0  0  0  0  0
   15.6528   35.3503   35.4136 C   0  0  0  0  0  0  0  0  0  0  0  0
   16.3798   34.6316   34.5046 N   0  0  0  0  0  0  0  0  0  0  0  0
   15.9004   35.1930   36.8094 N   0  0  0  0  0  0  0  0  0  0  0  0
    9.0092   45.4355   33.6669 H   0  0  0  0  0  0  0  0  0  0  0  0
   11.1124   46.2000   34.4884 H   0  0  0  0  0  0  0  0  0  0  0  0
   11.9344   45.6937   33.0932 H   0  0  0  0  0  0  0  0  0  0  0  0
   10.7304   44.8935   31.1678 H   0  0  0  0  0  0  0  0  0  0  0  0
    9.3511   43.8350   31.4761 H   0  0  0  0  0  0  0  0  0  0  0  0
    7.0103   44.7125   31.5779 H   0  0  0  0  0  0  0  0  0  0  0  0
   10.3476   47.1882   30.4105 H   0  0  0  0  0  0  0  0  0  0  0  0
    5.4632   46.2971   30.4896 H   0  0  0  0  0  0  0  0  0  0  0  0
    8.7909   48.7699   29.3361 H   0  0  0  0  0  0  0  0  0  0  0  0
    4.7370   50.0330   29.2036 H   0  0  0  0  0  0  0  0  0  0  0  0
    7.2487   50.3432   30.8925 H   0  0  0  0  0  0  0  0  0  0  0  0
    6.6752   51.2767   29.4877 H   0  0  0  0  0  0  0  0  0  0  0  0
    5.7925   51.4177   31.0486 H   0  0  0  0  0  0  0  0  0  0  0  0
    2.9742   48.4773   29.5816 H   0  0  0  0  0  0  0  0  0  0  0  0
    4.2116   48.2571   34.4073 H   0  0  0  0  0  0  0  0  0  0  0  0
   -0.2504   47.4896   32.9263 H   0  0  0  0  0  0  0  0  0  0  0  0
    0.5020   45.8442   32.6670 H   0  0  0  0  0  0  0  0  0  0  0  0
    9.8235   40.7202   31.7651 H   0  0  0  0  0  0  0  0  0  0  0  0
   11.3780   41.5548   31.4750 H   0  0  0  0  0  0  0  0  0  0  0  0
   11.7311   39.5363   30.3532 H   0  0  0  0  0  0  0  0  0  0  0  0
   10.1203   38.2695   32.6410 H   0  0  0  0  0  0  0  0  0  0  0  0
   13.6850   37.4638   31.2321 H   0  0  0  0  0  0  0  0  0  0  0  0
   10.0251   38.1792   29.7654 H   0  0  0  0  0  0  0  0  0  0  0  0
   11.2757   36.3135   32.4907 H   0  0  0  0  0  0  0  0  0  0  0  0
   11.9838   36.9111   29.7708 H   0  0  0  0  0  0  0  0  0  0  0  0
   12.3307   38.3536   34.7457 H   0  0  0  0  0  0  0  0  0  0  0  0
   16.7566   34.1787   32.4623 H   0  0  0  0  0  0  0  0  0  0  0  0
   15.3535   35.7355   37.5144 H   0  0  0  0  0  0  0  0  0  0  0  0
   16.6353   34.5301   37.1419 H   0  0  0  0  0  0  0  0  0  0  0  0
  1  2  2  0
  1  3  1  0
  3  4  1  0
  4  5  1  0
  6  1  1  0
  7  6  1  0
  6  8  1  0
  8  9  1  0
  9 10  2  0
 11  9  1  0
 10 12  1  0
 13 11  2  0
 12 14  2  0
 14 13  1  0
 14 15  1  0
 15 16  1  0
 16 17  1  0
 16 18  1  0
 18 19  2  0
 20 18  1  0
 19 21  1  0
 22 20  2  0
 20 23  1  0
 21 24  1  0
 21 25  2  0
 25 22  1  0
 23 26  1  0
 23 27  2  0
 24 28  1  0
 25 29  1  0
 28 29  1  0
  4 30  2  0
  4 31  1  0
 32 31  1  0
 32 33  1  0
 33 34  1  0
 33 35  1  0
 34 36  1  0
 35 37  1  0
 35 38  1  0
 38 36  1  0
 36 39  1  0
 38 40  1  0
 41 39  1  0
 42 39  1  0
 43 41  2  0
 41 44  1  0
 45 42  2  0
 46 43  1  0
 44 47  2  0
 44 45  1  0
 48 46  2  0
 48 47  1  0
 47 49  1  0
  6 50  1  1
  7 51  1  0
  7 52  1  0
  8 53  1  0
  8 54  1  0
 10 55  1  0
 11 56  1  0
 12 57  1  0
 13 58  1  0
 16 59  1  6
 17 60  1  0
 17 61  1  0
 17 62  1  0
 19 63  1  0
 22 64  1  0
 28 65  1  0
 28 66  1  0
 32 67  1  0
 32 68  1  0
 33 69  1  0
 35 70  1  0
 36 71  1  0
 37 72  1  0
 38 73  1  0
 40 74  1  0
 42 75  1  0
 46 76  1  0
 49 77  1  0
 49 78  1  0
M  CHG  3   5  -1  23   1  26  -1
M  END
>  <EmbedRMS>  (265) 
0.0818366833717

$$$$

     RDKit          3D

 78 83  0  0  0  0  0  0  0  0999 V2000
   10.2834   43.7663   33.8259 C   0  0  0  0  0  0  0  0  0  0  0  0
   11.4102   43.5930   34.3753 O   0  0  0  0  0  0  0  0  0  0  0  0
    9.3635   42.7257   33.7354 O   0  0  0  0  0  0  0  0  0  0  0  0
    9.8902   41.2268   34.2942 P   0  0  0  0  0  0  0  0  0  0  0  0
   10.3739   41.4559   35.8835 O   0  0  0  0  0  0  0  0  0  0  0  0
    9.9547   45.0695   33.2037 C   0  0  1  0  0  0  0  0  0  0  0  0
   11.0273   46.0323   33.4757 N   0  0  0  0  0  0  0  0  0  0  0  0
    9.7467   44.8478   31.6878 C   0  0  0  0  0  0  0  0  0  0  0  0
    8.7923   45.8404   31.0847 C   0  0  0  0  0  0  0  0  0  0  0  0
    7.4064   45.6012   31.0986 C   0  0  0  0  0  0  0  0  0  0  0  0
    9.2812   46.9867   30.4424 C   0  0  0  0  0  0  0  0  0  0  0  0
    6.5287   46.5033   30.4833 C   0  0  0  0  0  0  0  0  0  0  0  0
    8.4022   47.8888   29.8316 C   0  0  0  0  0  0  0  0  0  0  0  0
    7.0128   47.6559   29.8475 C   0  0  0  0  0  0  0  0  0  0  0  0
    6.0679   48.5190   29.2627 O   0  0  0  0  0  0  0  0  0  0  0  0
    6.2867   49.7789   28.6143 C   0  0  2  0  0  0  0  0  0  0  0  0
    6.9280   49.5691   27.2336 C   0  0  0  0  0  0  0  0  0  0  0  0
    6.9666   50.7970   29.5319 C   0  0  0  0  0  0  0  0  0  0  0  0
    8.2617   51.2999   29.2272 C   0  0  0  0  0  0  0  0  0  0  0  0
    6.2719   51.3325   30.6732 C   0  0  0  0  0  0  0  0  0  0  0  0
    8.8215   52.2579   30.0608 C   0  0  0  0  0  0  0  0  0  0  0  0
    6.8914   52.3178   31.4748 C   0  0  0  0  0  0  0  0  0  0  0  0
    4.9262   50.9455   30.9988 N   0  0  0  0  0  0  0  0  0  0  0  0
   10.0590   52.8644   29.9607 O   0  0  0  0  0  0  0  0  0  0  0  0
    8.1667   52.7440   31.1375 C   0  0  0  0  0  0  0  0  0  0  0  0
    4.0438   51.8890   31.4726 O   0  0  0  0  0  0  0  0  0  0  0  0
    4.6098   49.7415   31.0713 O   0  0  0  0  0  0  0  0  0  0  0  0
   10.1875   53.7898   31.0486 C   0  0  0  0  0  0  0  0  0  0  0  0
    8.9558   53.6819   31.7750 O   0  0  0  0  0  0  0  0  0  0  0  0
    8.8121   40.1851   34.2131 O   0  0  0  0  0  0  0  0  0  0  0  0
   11.2402   40.7952   33.3682 O   0  0  0  0  0  0  0  0  0  0  0  0
   10.9126   40.6877   31.9969 C   0  0  0  0  0  0  0  0  0  0  0  0
   11.5169   39.3811   31.4421 C   0  0  0  0  0  0  0  0  0  0  0  0
   12.7500   39.0881   32.0759 O   0  0  0  0  0  0  0  0  0  0  0  0
   10.6043   38.1893   31.6659 C   0  0  0  0  0  0  0  0  0  0  0  0
   12.9395   37.6813   32.0280 C   0  0  0  0  0  0  0  0  0  0  0  0
    9.6353   38.0951   30.6499 O   0  0  0  0  0  0  0  0  0  0  0  0
   11.5803   37.0191   31.6934 C   0  0  0  0  0  0  0  0  0  0  0  0
   13.4851   37.2119   33.3244 N   0  0  0  0  0  0  0  0  0  0  0  0
   11.6118   36.3189   30.4673 O   0  0  0  0  0  0  0  0  0  0  0  0
   14.4801   36.3316   33.5732 C   0  0  0  0  0  0  0  0  0  0  0  0
   13.1139   37.6277   34.5692 C   0  0  0  0  0  0  0  0  0  0  0  0
   15.2076   35.6154   32.6744 N   0  0  0  0  0  0  0  0  0  0  0  0
   14.6756   36.2303   34.9186 C   0  0  0  0  0  0  0  0  0  0  0  0
   13.8215   37.0451   35.5786 N   0  0  0  0  0  0  0  0  0  0  0  0
   16.1642   34.7602   33.1551 C   0  0  0  0  0  0  0  0  0  0  0  0
   15.6526   35.3505   35.4134 C   0  0  0  0  0  0  0  0  0  0  0  0
   16.3796   34.6316   34.5045 N   0  0  0  0  0  0  0  0  0  0  0  0
   15.9000   35.1933   36.8093 N   0  0  0  0  0  0  0  0  0  0  0  0
    9.0121   45.4319   33.6714 H   0  0  0  0  0  0  0  0  0  0  0  0
   11.8906   45.7659   32.9470 H   0  0  0  0  0  0  0  0  0  0  0  0
   10.7259   46.9688   33.1212 H   0  0  0  0  0  0  0  0  0  0  0  0
    9.3418   43.8326   31.4765 H   0  0  0  0  0  0  0  0  0  0  0  0
   10.7231   44.8814   31.1558 H   0  0  0  0  0  0  0  0  0  0  0  0
    7.0086   44.7166   31.5806 H   0  0  0  0  0  0  0  0  0  0  0  0
   10.3460   47.1829   30.4101 H   0  0  0  0  0  0  0  0  0  0  0  0
    5.4641   46.3069   30.5037 H   0  0  0  0  0  0  0  0  0  0  0  0
    8.8257   48.7494   29.3488 H   0  0  0  0  0  0  0  0  0  0  0  0
    5.2815   50.1977   28.3903 H   0  0  0  0  0  0  0  0  0  0  0  0
    7.9184   49.0787   27.3022 H   0  0  0  0  0  0  0  0  0  0  0  0
    7.0348   50.5420   26.7080 H   0  0  0  0  0  0  0  0  0  0  0  0
    6.2718   48.9176   26.6183 H   0  0  0  0  0  0  0  0  0  0  0  0
    8.8309   50.9636   28.3727 H   0  0  0  0  0  0  0  0  0  0  0  0
    6.3910   52.7376   32.3380 H   0  0  0  0  0  0  0  0  0  0  0  0
   10.3149   54.8224   30.6614 H   0  0  0  0  0  0  0  0  0  0  0  0
   11.0415   53.5035   31.6976 H   0  0  0  0  0  0  0  0  0  0  0  0
    9.8216   40.7223   31.7647 H   0  0  0  0  0  0  0  0  0  0  0  0
   11.3809   41.5456   31.4686 H   0  0  0  0  0  0  0  0  0  0  0  0
   11.6986   39.5089   30.3499 H   0  0  0  0  0  0  0  0  0  0  0  0
   10.1108   38.2737   32.6630 H   0  0  0  0  0  0  0  0  0  0  0  0
   13.6783   37.4562   31.2271 H   0  0  0  0  0  0  0  0  0  0  0  0
    9.0020   37.3860   30.9348 H   0  0  0  0  0  0  0  0  0  0  0  0
   11.2807   36.3053   32.4921 H   0  0  0  0  0  0  0  0  0  0  0  0
   11.8818   36.9600   29.7584 H   0  0  0  0  0  0  0  0  0  0  0  0
   12.3303   38.3538   34.7445 H   0  0  0  0  0  0  0  0  0  0  0  0
   16.7564   34.1783   32.4623 H   0  0  0  0  0  0  0  0  0  0  0  0
   15.3532   35.7360   37.5142 H   0  0  0  0  0  0  0  0  0  0  0  0
   16.6347   34.5302   37.1419 H   0  0  0  0  0  0  0  0  0  0  0  0
  1  2  2  0
  1  3  1  0
  3  4  1  0
  4  5  1  0
  6  1  1  0
  7  6  1  0
  6  8  1  0
  8  9  1  0
  9 10  2  0
 11  9  1  0
 10 12  1  0
 13 11  2  0
 12 14  2  0
 14 13  1  0
 14 15  1  0
 15 16  1  0
 16 17  1  0
 16 18  1  0
 18 19  2  0
 20 18  1  0
 19 21  1  0
 22 20  2  0
 20 23  1  0
 21 24  1  0
 21 25  2  0
 25 22  1  0
 23 26  1  0
 23 27  2  0
 24 28  1  0
 25 29  1  0
 28 29  1  0
  4 30  2  0
  4 31  1  0
 32 31  1  0
 32 33  1  0
 33 34  1  0
 33 35  1  0
 34 36  1  0
 35 37  1  0
 35 38  1  0
 38 36  1  0
 36 39  1  0
 38 40  1  0
 41 39  1  0
 42 39  1  0
 43 41  2  0
 41 44  1  0
 45 42  2  0
 46 43  1  0
 44 47  2  0
 44 45  1  0
 48 46  2  0
 48 47  1  0
 47 49  1  0
  6 50  1  1
  7 51  1  0
  7 52  1  0
  8 53  1  0
  8 54  1  0
 10 55  1  0
 11 56  1  0
 12 57  1  0
 13 58  1  0
 16 59  1  6
 17 60  1  0
 17 61  1  0
 17 62  1  0
 19 63  1  0
 22 64  1  0
 28 65  1  0
 28 66  1  0
 32 67  1  0
 32 68  1  0
 33 69  1  0
 35 70  1  0
 36 71  1  0
 37 72  1  0
 38 73  1  0
 40 74  1  0
 42 75  1  0
 46 76  1  0
 49 77  1  0
 49 78  1  0
M  CHG  3   5  -1  23   1  26  -1
M  END
>  <EmbedRMS>  (266) 
0.081554755643

$$$$

     RDKit          3D

 78 83  0  0  0  0  0  0  0  0999 V2000
   10.2836   43.7661   33.8256 C   0  0  0  0  0  0  0  0  0  0  0  0
   11.4102   43.5930   34.3753 O   0  0  0  0  0  0  0  0  0  0  0  0
    9.3640   42.7253   33.7346 O   0  0  0  0  0  0  0  0  0  0  0  0
    9.8908   41.2264   34.2939 P   0  0  0  0  0  0  0  0  0  0  0  0
   10.3732   41.4559   35.8835 O   0  0  0  0  0  0  0  0  0  0  0  0
    9.9548   45.0694   33.2035 C   0  0  1  0  0  0  0  0  0  0  0  0
   11.0273   46.0322   33.4758 N   0  0  0  0  0  0  0  0  0  0  0  0
    9.7471   44.8482   31.6874 C   0  0  0  0  0  0  0  0  0  0  0  0
    8.7926   45.8407   31.0841 C   0  0  0  0  0  0  0  0  0  0  0  0
    7.4059   45.6013   31.0996 C   0  0  0  0  0  0  0  0  0  0  0  0
    9.2817   46.9879   30.4425 C   0  0  0  0  0  0  0  0  0  0  0  0
    6.5241   46.5016   30.4858 C   0  0  0  0  0  0  0  0  0  0  0  0
    8.4005   47.8883   29.8333 C   0  0  0  0  0  0  0  0  0  0  0  0
    7.0187   47.6560   29.8438 C   0  0  0  0  0  0  0  0  0  0  0  0
    6.1879   48.5980   29.2151 O   0  0  0  0  0  0  0  0  0  0  0  0
    4.7768   48.4791   29.0164 C   0  0  2  0  0  0  0  0  0  0  0  0
    4.4535   47.4468   27.9295 C   0  0  0  0  0  0  0  0  0  0  0  0
    4.1695   49.8253   28.6578 C   0  0  0  0  0  0  0  0  0  0  0  0
    2.8457   50.0777   29.0949 C   0  0  0  0  0  0  0  0  0  0  0  0
    4.8732   50.8514   27.9336 C   0  0  0  0  0  0  0  0  0  0  0  0
    2.2826   51.3199   28.8361 C   0  0  0  0  0  0  0  0  0  0  0  0
    4.2518   52.1021   27.7165 C   0  0  0  0  0  0  0  0  0  0  0  0
    6.1998   50.6569   27.4192 N   0  0  0  0  0  0  0  0  0  0  0  0
    1.0242   51.7797   29.1738 O   0  0  0  0  0  0  0  0  0  0  0  0
    2.9574   52.2906   28.1802 C   0  0  0  0  0  0  0  0  0  0  0  0
    7.1062   51.6909   27.4656 O   0  0  0  0  0  0  0  0  0  0  0  0
    6.4657   49.6563   26.7233 O   0  0  0  0  0  0  0  0  0  0  0  0
    0.9031   53.1270   28.6975 C   0  0  0  0  0  0  0  0  0  0  0  0
    2.1601   53.4135   28.0692 O   0  0  0  0  0  0  0  0  0  0  0  0
    8.8127   40.1847   34.2122 O   0  0  0  0  0  0  0  0  0  0  0  0
   11.2420   40.7941   33.3697 O   0  0  0  0  0  0  0  0  0  0  0  0
   10.9187   40.6911   31.9971 C   0  0  0  0  0  0  0  0  0  0  0  0
   11.5172   39.3815   31.4407 C   0  0  0  0  0  0  0  0  0  0  0  0
   12.7493   39.0856   32.0728 O   0  0  0  0  0  0  0  0  0  0  0  0
   10.6023   38.1908   31.6665 C   0  0  0  0  0  0  0  0  0  0  0  0
   12.9319   37.6781   32.0281 C   0  0  0  0  0  0  0  0  0  0  0  0
    9.6392   38.0798   30.6452 O   0  0  0  0  0  0  0  0  0  0  0  0
   11.5715   37.0166   31.7056 C   0  0  0  0  0  0  0  0  0  0  0  0
   13.4847   37.2121   33.3235 N   0  0  0  0  0  0  0  0  0  0  0  0
   11.6186   36.3384   30.4695 O   0  0  0  0  0  0  0  0  0  0  0  0
   14.4801   36.3321   33.5724 C   0  0  0  0  0  0  0  0  0  0  0  0
   13.1137   37.6275   34.5687 C   0  0  0  0  0  0  0  0  0  0  0  0
   15.2073   35.6153   32.6738 N   0  0  0  0  0  0  0  0  0  0  0  0
   14.6759   36.2308   34.9179 C   0  0  0  0  0  0  0  0  0  0  0  0
   13.8216   37.0452   35.5781 N   0  0  0  0  0  0  0  0  0  0  0  0
   16.1640   34.7602   33.1546 C   0  0  0  0  0  0  0  0  0  0  0  0
   15.6526   35.3508   35.4129 C   0  0  0  0  0  0  0  0  0  0  0  0
   16.3794   34.6317   34.5041 N   0  0  0  0  0  0  0  0  0  0  0  0
   15.8999   35.1935   36.8088 N   0  0  0  0  0  0  0  0  0  0  0  0
    9.0121   45.4316   33.6711 H   0  0  0  0  0  0  0  0  0  0  0  0
   11.8907   45.7659   32.9474 H   0  0  0  0  0  0  0  0  0  0  0  0
   10.7259   46.9687   33.1214 H   0  0  0  0  0  0  0  0  0  0  0  0
    9.3424   43.8329   31.4758 H   0  0  0  0  0  0  0  0  0  0  0  0
   10.7236   44.8821   31.1556 H   0  0  0  0  0  0  0  0  0  0  0  0
    7.0103   44.7168   31.5837 H   0  0  0  0  0  0  0  0  0  0  0  0
   10.3460   47.1865   30.4112 H   0  0  0  0  0  0  0  0  0  0  0  0
    5.4663   46.2863   30.5230 H   0  0  0  0  0  0  0  0  0  0  0  0
    8.7940   48.7706   29.3443 H   0  0  0  0  0  0  0  0  0  0  0  0
    4.3171   48.1430   29.9716 H   0  0  0  0  0  0  0  0  0  0  0  0
    4.8339   47.7713   26.9404 H   0  0  0  0  0  0  0  0  0  0  0  0
    3.3537   47.3084   27.8554 H   0  0  0  0  0  0  0  0  0  0  0  0
    4.9078   46.4650   28.1727 H   0  0  0  0  0  0  0  0  0  0  0  0
    2.2753   49.3303   29.6323 H   0  0  0  0  0  0  0  0  0  0  0  0
    4.7569   52.8962   27.1815 H   0  0  0  0  0  0  0  0  0  0  0  0
    0.7325   53.8208   29.5471 H   0  0  0  0  0  0  0  0  0  0  0  0
    0.0792   53.2000   27.9571 H   0  0  0  0  0  0  0  0  0  0  0  0
   11.3969   41.5460   31.4729 H   0  0  0  0  0  0  0  0  0  0  0  0
    9.8300   40.7410   31.7613 H   0  0  0  0  0  0  0  0  0  0  0  0
   11.6975   39.5067   30.3481 H   0  0  0  0  0  0  0  0  0  0  0  0
   10.1077   38.2648   32.6645 H   0  0  0  0  0  0  0  0  0  0  0  0
   13.6621   37.4467   31.2208 H   0  0  0  0  0  0  0  0  0  0  0  0
    8.8975   38.6944   30.8831 H   0  0  0  0  0  0  0  0  0  0  0  0
   11.2806   36.3073   32.5171 H   0  0  0  0  0  0  0  0  0  0  0  0
   10.8492   35.7110   30.4586 H   0  0  0  0  0  0  0  0  0  0  0  0
   12.3290   38.3524   34.7444 H   0  0  0  0  0  0  0  0  0  0  0  0
   16.7559   34.1780   32.4619 H   0  0  0  0  0  0  0  0  0  0  0  0
   15.3532   35.7363   37.5137 H   0  0  0  0  0  0  0  0  0  0  0  0
   16.6344   34.5301   37.1414 H   0  0  0  0  0  0  0  0  0  0  0  0
  1  2  2  0
  1  3  1  0
  3  4  1  0
  4  5  1  0
  6  1  1  0
  7  6  1  0
  6  8  1  0
  8  9  1  0
  9 10  2  0
 11  9  1  0
 10 12  1  0
 13 11  2  0
 12 14  2  0
 14 13  1  0
 14 15  1  0
 15 16  1  0
 16 17  1  0
 16 18  1  0
 18 19  2  0
 20 18  1  0
 19 21  1  0
 22 20  2  0
 20 23  1  0
 21 24  1  0
 21 25  2  0
 25 22  1  0
 23 26  1  0
 23 27  2  0
 24 28  1  0
 25 29  1  0
 28 29  1  0
  4 30  2  0
  4 31  1  0
 32 31  1  0
 32 33  1  0
 33 34  1  0
 33 35  1  0
 34 36  1  0
 35 37  1  0
 35 38  1  0
 38 36  1  0
 36 39  1  0
 38 40  1  0
 41 39  1  0
 42 39  1  0
 43 41  2  0
 41 44  1  0
 45 42  2  0
 46 43  1  0
 44 47  2  0
 44 45  1  0
 48 46  2  0
 48 47  1  0
 47 49  1  0
  6 50  1  1
  7 51  1  0
  7 52  1  0
  8 53  1  0
  8 54  1  0
 10 55  1  0
 11 56  1  0
 12 57  1  0
 13 58  1  0
 16 59  1  1
 17 60  1  0
 17 61  1  0
 17 62  1  0
 19 63  1  0
 22 64  1  0
 28 65  1  0
 28 66  1  0
 32 67  1  0
 32 68  1  0
 33 69  1  0
 35 70  1  0
 36 71  1  0
 37 72  1  0
 38 73  1  0
 40 74  1  0
 42 75  1  0
 46 76  1  0
 49 77  1  0
 49 78  1  0
M  CHG  3   5  -1  23   1  26  -1
M  END
>  <EmbedRMS>  (267) 
0.0829330091741

$$$$

     RDKit          3D

 78 83  0  0  0  0  0  0  0  0999 V2000
   10.2839   43.7626   33.8276 C   0  0  0  0  0  0  0  0  0  0  0  0
   11.4104   43.5862   34.3767 O   0  0  0  0  0  0  0  0  0  0  0  0
    9.3630   42.7236   33.7353 O   0  0  0  0  0  0  0  0  0  0  0  0
    9.8896   41.2248   34.2935 P   0  0  0  0  0  0  0  0  0  0  0  0
   10.3735   41.4542   35.8829 O   0  0  0  0  0  0  0  0  0  0  0  0
    9.9550   45.0700   33.2067 C   0  0  1  0  0  0  0  0  0  0  0  0
   11.0200   46.0481   33.4574 N   0  0  0  0  0  0  0  0  0  0  0  0
    9.7505   44.8514   31.6926 C   0  0  0  0  0  0  0  0  0  0  0  0
    8.7944   45.8427   31.0883 C   0  0  0  0  0  0  0  0  0  0  0  0
    7.4082   45.6003   31.0995 C   0  0  0  0  0  0  0  0  0  0  0  0
    9.2825   46.9887   30.4443 C   0  0  0  0  0  0  0  0  0  0  0  0
    6.5265   46.4989   30.4836 C   0  0  0  0  0  0  0  0  0  0  0  0
    8.4007   47.8863   29.8312 C   0  0  0  0  0  0  0  0  0  0  0  0
    7.0181   47.6581   29.8482 C   0  0  0  0  0  0  0  0  0  0  0  0
    6.1873   48.5986   29.2075 O   0  0  0  0  0  0  0  0  0  0  0  0
    4.7616   48.7364   29.3304 C   0  0  2  0  0  0  0  0  0  0  0  0
    4.3567   48.8446   30.8149 C   0  0  0  0  0  0  0  0  0  0  0  0
    3.9816   47.6673   28.5599 C   0  0  0  0  0  0  0  0  0  0  0  0
    4.6749   46.6805   27.8084 C   0  0  0  0  0  0  0  0  0  0  0  0
    2.5439   47.6422   28.5617 C   0  0  0  0  0  0  0  0  0  0  0  0
    3.9446   45.6785   27.1840 C   0  0  0  0  0  0  0  0  0  0  0  0
    1.8560   46.5861   27.9217 C   0  0  0  0  0  0  0  0  0  0  0  0
    1.7727   48.6918   29.1639 N   0  0  0  0  0  0  0  0  0  0  0  0
    4.4122   44.6176   26.4323 O   0  0  0  0  0  0  0  0  0  0  0  0
    2.5960   45.6271   27.2469 C   0  0  0  0  0  0  0  0  0  0  0  0
    2.0242   50.0036   28.8353 O   0  0  0  0  0  0  0  0  0  0  0  0
    0.7294   48.4170   29.7919 O   0  0  0  0  0  0  0  0  0  0  0  0
    3.2812   43.8499   25.9989 C   0  0  0  0  0  0  0  0  0  0  0  0
    2.1410   44.5305   26.5403 O   0  0  0  0  0  0  0  0  0  0  0  0
    8.8113   40.1834   34.2126 O   0  0  0  0  0  0  0  0  0  0  0  0
   11.2398   40.7937   33.3671 O   0  0  0  0  0  0  0  0  0  0  0  0
   10.9125   40.6857   31.9955 C   0  0  0  0  0  0  0  0  0  0  0  0
   11.5175   39.3786   31.4405 C   0  0  0  0  0  0  0  0  0  0  0  0
   12.7490   39.0863   32.0751 O   0  0  0  0  0  0  0  0  0  0  0  0
   10.6061   38.1867   31.6656 C   0  0  0  0  0  0  0  0  0  0  0  0
   12.9356   37.6796   32.0292 C   0  0  0  0  0  0  0  0  0  0  0  0
    9.6399   38.0902   30.6471 O   0  0  0  0  0  0  0  0  0  0  0  0
   11.5765   37.0145   31.7043 C   0  0  0  0  0  0  0  0  0  0  0  0
   13.4858   37.2125   33.3244 N   0  0  0  0  0  0  0  0  0  0  0  0
   11.6101   36.3396   30.4673 O   0  0  0  0  0  0  0  0  0  0  0  0
   14.4805   36.3319   33.5729 C   0  0  0  0  0  0  0  0  0  0  0  0
   13.1143   37.6276   34.5694 C   0  0  0  0  0  0  0  0  0  0  0  0
   15.2076   35.6153   32.6741 N   0  0  0  0  0  0  0  0  0  0  0  0
   14.6760   36.2304   34.9184 C   0  0  0  0  0  0  0  0  0  0  0  0
   13.8219   37.0449   35.5786 N   0  0  0  0  0  0  0  0  0  0  0  0
   16.1641   34.7600   33.1548 C   0  0  0  0  0  0  0  0  0  0  0  0
   15.6528   35.3505   35.4132 C   0  0  0  0  0  0  0  0  0  0  0  0
   16.3795   34.6314   34.5043 N   0  0  0  0  0  0  0  0  0  0  0  0
   15.9002   35.1931   36.8091 N   0  0  0  0  0  0  0  0  0  0  0  0
    9.0100   45.4348   33.6674 H   0  0  0  0  0  0  0  0  0  0  0  0
   11.1135   46.1991   34.4887 H   0  0  0  0  0  0  0  0  0  0  0  0
   11.9350   45.6933   33.0930 H   0  0  0  0  0  0  0  0  0  0  0  0
   10.7308   44.8935   31.1678 H   0  0  0  0  0  0  0  0  0  0  0  0
    9.3516   43.8349   31.4760 H   0  0  0  0  0  0  0  0  0  0  0  0
    7.0137   44.7100   31.5738 H   0  0  0  0  0  0  0  0  0  0  0  0
   10.3466   47.1884   30.4132 H   0  0  0  0  0  0  0  0  0  0  0  0
    5.4746   46.2604   30.4828 H   0  0  0  0  0  0  0  0  0  0  0  0
    8.7945   48.7667   29.3394 H   0  0  0  0  0  0  0  0  0  0  0  0
    4.5187   49.7098   28.8563 H   0  0  0  0  0  0  0  0  0  0  0  0
    3.4845   49.5173   30.9392 H   0  0  0  0  0  0  0  0  0  0  0  0
    4.0895   47.8577   31.2436 H   0  0  0  0  0  0  0  0  0  0  0  0
    5.1869   49.2815   31.4095 H   0  0  0  0  0  0  0  0  0  0  0  0
    5.7500   46.6766   27.7062 H   0  0  0  0  0  0  0  0  0  0  0  0
    0.7746   46.5379   27.9190 H   0  0  0  0  0  0  0  0  0  0  0  0
    3.3394   42.8179   26.4040 H   0  0  0  0  0  0  0  0  0  0  0  0
    3.2285   43.8361   24.8901 H   0  0  0  0  0  0  0  0  0  0  0  0
    9.8216   40.7200   31.7633 H   0  0  0  0  0  0  0  0  0  0  0  0
   11.3807   41.5436   31.4670 H   0  0  0  0  0  0  0  0  0  0  0  0
   11.6998   39.5042   30.3481 H   0  0  0  0  0  0  0  0  0  0  0  0
   10.1085   38.2766   32.6603 H   0  0  0  0  0  0  0  0  0  0  0  0
   13.6680   37.4519   31.2229 H   0  0  0  0  0  0  0  0  0  0  0  0
    9.0016   37.3867   30.9349 H   0  0  0  0  0  0  0  0  0  0  0  0
   11.2667   36.3061   32.5083 H   0  0  0  0  0  0  0  0  0  0  0  0
   12.1389   35.5126   30.6150 H   0  0  0  0  0  0  0  0  0  0  0  0
   12.3300   38.3529   34.7449 H   0  0  0  0  0  0  0  0  0  0  0  0
   16.7560   34.1779   32.4621 H   0  0  0  0  0  0  0  0  0  0  0  0
   15.3534   35.7359   37.5140 H   0  0  0  0  0  0  0  0  0  0  0  0
   16.6347   34.5298   37.1416 H   0  0  0  0  0  0  0  0  0  0  0  0
  1  2  2  0
  1  3  1  0
  3  4  1  0
  4  5  1  0
  6  1  1  0
  7  6  1  0
  6  8  1  0
  8  9  1  0
  9 10  2  0
 11  9  1  0
 10 12  1  0
 13 11  2  0
 12 14  2  0
 14 13  1  0
 14 15  1  0
 15 16  1  0
 16 17  1  0
 16 18  1  0
 18 19  2  0
 20 18  1  0
 19 21  1  0
 22 20  2  0
 20 23  1  0
 21 24  1  0
 21 25  2  0
 25 22  1  0
 23 26  1  0
 23 27  2  0
 24 28  1  0
 25 29  1  0
 28 29  1  0
  4 30  2  0
  4 31  1  0
 32 31  1  0
 32 33  1  0
 33 34  1  0
 33 35  1  0
 34 36  1  0
 35 37  1  0
 35 38  1  0
 38 36  1  0
 36 39  1  0
 38 40  1  0
 41 39  1  0
 42 39  1  0
 43 41  2  0
 41 44  1  0
 45 42  2  0
 46 43  1  0
 44 47  2  0
 44 45  1  0
 48 46  2  0
 48 47  1  0
 47 49  1  0
  6 50  1  1
  7 51  1  0
  7 52  1  0
  8 53  1  0
  8 54  1  0
 10 55  1  0
 11 56  1  0
 12 57  1  0
 13 58  1  0
 16 59  1  6
 17 60  1  0
 17 61  1  0
 17 62  1  0
 19 63  1  0
 22 64  1  0
 28 65  1  0
 28 66  1  0
 32 67  1  0
 32 68  1  0
 33 69  1  0
 35 70  1  0
 36 71  1  0
 37 72  1  0
 38 73  1  0
 40 74  1  0
 42 75  1  0
 46 76  1  0
 49 77  1  0
 49 78  1  0
M  CHG  3   5  -1  23   1  26  -1
M  END
>  <EmbedRMS>  (268) 
0.0832523699092

$$$$

     RDKit          3D

 78 83  0  0  0  0  0  0  0  0999 V2000
   10.2803   43.7666   33.8249 C   0  0  0  0  0  0  0  0  0  0  0  0
   11.4109   43.5921   34.3666 O   0  0  0  0  0  0  0  0  0  0  0  0
    9.3621   42.7248   33.7342 O   0  0  0  0  0  0  0  0  0  0  0  0
    9.8904   41.2265   34.2936 P   0  0  0  0  0  0  0  0  0  0  0  0
   10.3731   41.4566   35.8831 O   0  0  0  0  0  0  0  0  0  0  0  0
    9.9455   45.0739   33.2113 C   0  0  1  0  0  0  0  0  0  0  0  0
   11.0260   46.0296   33.4709 N   0  0  0  0  0  0  0  0  0  0  0  0
    9.7534   44.8546   31.6950 C   0  0  0  0  0  0  0  0  0  0  0  0
    8.7952   45.8418   31.0849 C   0  0  0  0  0  0  0  0  0  0  0  0
    7.4075   45.5991   31.0998 C   0  0  0  0  0  0  0  0  0  0  0  0
    9.2832   46.9883   30.4371 C   0  0  0  0  0  0  0  0  0  0  0  0
    6.5268   46.4983   30.4827 C   0  0  0  0  0  0  0  0  0  0  0  0
    8.4006   47.8878   29.8271 C   0  0  0  0  0  0  0  0  0  0  0  0
    7.0199   47.6525   29.8575 C   0  0  0  0  0  0  0  0  0  0  0  0
    6.1377   48.5542   29.2551 O   0  0  0  0  0  0  0  0  0  0  0  0
    5.5333   49.6509   29.9488 C   0  0  2  0  0  0  0  0  0  0  0  0
    6.5641   50.7454   30.2603 C   0  0  0  0  0  0  0  0  0  0  0  0
    4.7597   49.1744   31.1745 C   0  0  0  0  0  0  0  0  0  0  0  0
    5.4400   48.9664   32.4030 C   0  0  0  0  0  0  0  0  0  0  0  0
    3.3486   48.9194   31.1108 C   0  0  0  0  0  0  0  0  0  0  0  0
    4.7049   48.5744   33.5133 C   0  0  0  0  0  0  0  0  0  0  0  0
    2.6502   48.5426   32.2810 C   0  0  0  0  0  0  0  0  0  0  0  0
    2.6264   48.9954   29.8712 N   0  0  0  0  0  0  0  0  0  0  0  0
    5.1548   48.3238   34.7954 O   0  0  0  0  0  0  0  0  0  0  0  0
    3.3684   48.3792   33.4571 C   0  0  0  0  0  0  0  0  0  0  0  0
    3.1290   48.3905   28.7422 O   0  0  0  0  0  0  0  0  0  0  0  0
    1.4485   49.4087   29.8590 O   0  0  0  0  0  0  0  0  0  0  0  0
    4.0251   47.9482   35.5948 C   0  0  0  0  0  0  0  0  0  0  0  0
    2.9046   47.9964   34.7010 O   0  0  0  0  0  0  0  0  0  0  0  0
    8.8129   40.1842   34.2124 O   0  0  0  0  0  0  0  0  0  0  0  0
   11.2418   40.7945   33.3695 O   0  0  0  0  0  0  0  0  0  0  0  0
   10.9185   40.6911   31.9969 C   0  0  0  0  0  0  0  0  0  0  0  0
   11.5172   39.3814   31.4407 C   0  0  0  0  0  0  0  0  0  0  0  0
   12.7492   39.0856   32.0729 O   0  0  0  0  0  0  0  0  0  0  0  0
   10.6023   38.1908   31.6665 C   0  0  0  0  0  0  0  0  0  0  0  0
   12.9319   37.6781   32.0281 C   0  0  0  0  0  0  0  0  0  0  0  0
    9.6392   38.0797   30.6452 O   0  0  0  0  0  0  0  0  0  0  0  0
   11.5715   37.0166   31.7056 C   0  0  0  0  0  0  0  0  0  0  0  0
   13.4846   37.2121   33.3235 N   0  0  0  0  0  0  0  0  0  0  0  0
   11.6187   36.3384   30.4695 O   0  0  0  0  0  0  0  0  0  0  0  0
   14.4801   36.3321   33.5724 C   0  0  0  0  0  0  0  0  0  0  0  0
   13.1137   37.6276   34.5688 C   0  0  0  0  0  0  0  0  0  0  0  0
   15.2073   35.6153   32.6738 N   0  0  0  0  0  0  0  0  0  0  0  0
   14.6759   36.2308   34.9179 C   0  0  0  0  0  0  0  0  0  0  0  0
   13.8216   37.0452   35.5781 N   0  0  0  0  0  0  0  0  0  0  0  0
   16.1640   34.7602   33.1546 C   0  0  0  0  0  0  0  0  0  0  0  0
   15.6526   35.3508   35.4129 C   0  0  0  0  0  0  0  0  0  0  0  0
   16.3794   34.6317   34.5041 N   0  0  0  0  0  0  0  0  0  0  0  0
   15.8999   35.1934   36.8088 N   0  0  0  0  0  0  0  0  0  0  0  0
    8.9989   45.4383   33.6723 H   0  0  0  0  0  0  0  0  0  0  0  0
   11.0495   46.2281   34.4983 H   0  0  0  0  0  0  0  0  0  0  0  0
   10.7755   46.9372   33.0160 H   0  0  0  0  0  0  0  0  0  0  0  0
    9.3638   43.8359   31.4712 H   0  0  0  0  0  0  0  0  0  0  0  0
   10.7406   44.9083   31.1837 H   0  0  0  0  0  0  0  0  0  0  0  0
    7.0122   44.7143   31.5832 H   0  0  0  0  0  0  0  0  0  0  0  0
   10.3472   47.1864   30.4005 H   0  0  0  0  0  0  0  0  0  0  0  0
    5.4619   46.3037   30.4991 H   0  0  0  0  0  0  0  0  0  0  0  0
    8.7895   48.7677   29.3310 H   0  0  0  0  0  0  0  0  0  0  0  0
    4.8240   50.1327   29.2447 H   0  0  0  0  0  0  0  0  0  0  0  0
    6.9761   51.1480   29.3107 H   0  0  0  0  0  0  0  0  0  0  0  0
    6.0811   51.5785   30.8142 H   0  0  0  0  0  0  0  0  0  0  0  0
    7.4118   50.3563   30.8590 H   0  0  0  0  0  0  0  0  0  0  0  0
    6.5083   49.0981   32.4991 H   0  0  0  0  0  0  0  0  0  0  0  0
    1.5856   48.3474   32.2644 H   0  0  0  0  0  0  0  0  0  0  0  0
    4.1580   46.9183   35.9874 H   0  0  0  0  0  0  0  0  0  0  0  0
    3.8845   48.6717   36.4250 H   0  0  0  0  0  0  0  0  0  0  0  0
   11.3966   41.5460   31.4725 H   0  0  0  0  0  0  0  0  0  0  0  0
    9.8298   40.7409   31.7611 H   0  0  0  0  0  0  0  0  0  0  0  0
   11.6975   39.5066   30.3481 H   0  0  0  0  0  0  0  0  0  0  0  0
   10.1076   38.2648   32.6646 H   0  0  0  0  0  0  0  0  0  0  0  0
   13.6621   37.4468   31.2209 H   0  0  0  0  0  0  0  0  0  0  0  0
    8.8973   38.6942   30.8832 H   0  0  0  0  0  0  0  0  0  0  0  0
   11.2806   36.3073   32.5170 H   0  0  0  0  0  0  0  0  0  0  0  0
   10.8493   35.7110   30.4586 H   0  0  0  0  0  0  0  0  0  0  0  0
   12.3290   38.3524   34.7444 H   0  0  0  0  0  0  0  0  0  0  0  0
   16.7559   34.1780   32.4619 H   0  0  0  0  0  0  0  0  0  0  0  0
   15.3532   35.7362   37.5137 H   0  0  0  0  0  0  0  0  0  0  0  0
   16.6344   34.5301   37.1414 H   0  0  0  0  0  0  0  0  0  0  0  0
  1  2  2  0
  1  3  1  0
  3  4  1  0
  4  5  1  0
  6  1  1  0
  7  6  1  0
  6  8  1  0
  8  9  1  0
  9 10  2  0
 11  9  1  0
 10 12  1  0
 13 11  2  0
 12 14  2  0
 14 13  1  0
 14 15  1  0
 15 16  1  0
 16 17  1  0
 16 18  1  0
 18 19  2  0
 20 18  1  0
 19 21  1  0
 22 20  2  0
 20 23  1  0
 21 24  1  0
 21 25  2  0
 25 22  1  0
 23 26  1  0
 23 27  2  0
 24 28  1  0
 25 29  1  0
 28 29  1  0
  4 30  2  0
  4 31  1  0
 32 31  1  0
 32 33  1  0
 33 34  1  0
 33 35  1  0
 34 36  1  0
 35 37  1  0
 35 38  1  0
 38 36  1  0
 36 39  1  0
 38 40  1  0
 41 39  1  0
 42 39  1  0
 43 41  2  0
 41 44  1  0
 45 42  2  0
 46 43  1  0
 44 47  2  0
 44 45  1  0
 48 46  2  0
 48 47  1  0
 47 49  1  0
  6 50  1  1
  7 51  1  0
  7 52  1  0
  8 53  1  0
  8 54  1  0
 10 55  1  0
 11 56  1  0
 12 57  1  0
 13 58  1  0
 16 59  1  6
 17 60  1  0
 17 61  1  0
 17 62  1  0
 19 63  1  0
 22 64  1  0
 28 65  1  0
 28 66  1  0
 32 67  1  0
 32 68  1  0
 33 69  1  0
 35 70  1  0
 36 71  1  0
 37 72  1  0
 38 73  1  0
 40 74  1  0
 42 75  1  0
 46 76  1  0
 49 77  1  0
 49 78  1  0
M  CHG  3   5  -1  23   1  26  -1
M  END
>  <EmbedRMS>  (269) 
0.0828756065604

$$$$

     RDKit          3D

 78 83  0  0  0  0  0  0  0  0999 V2000
   10.2833   43.7663   33.8257 C   0  0  0  0  0  0  0  0  0  0  0  0
   11.4101   43.5930   34.3752 O   0  0  0  0  0  0  0  0  0  0  0  0
    9.3635   42.7257   33.7352 O   0  0  0  0  0  0  0  0  0  0  0  0
    9.8899   41.2270   34.2947 P   0  0  0  0  0  0  0  0  0  0  0  0
   10.3732   41.4563   35.8841 O   0  0  0  0  0  0  0  0  0  0  0  0
    9.9547   45.0696   33.2036 C   0  0  1  0  0  0  0  0  0  0  0  0
   11.0272   46.0323   33.4760 N   0  0  0  0  0  0  0  0  0  0  0  0
    9.7471   44.8485   31.6876 C   0  0  0  0  0  0  0  0  0  0  0  0
    8.7925   45.8409   31.0844 C   0  0  0  0  0  0  0  0  0  0  0  0
    7.4059   45.6007   31.0991 C   0  0  0  0  0  0  0  0  0  0  0  0
    9.2818   46.9876   30.4413 C   0  0  0  0  0  0  0  0  0  0  0  0
    6.5246   46.5004   30.4844 C   0  0  0  0  0  0  0  0  0  0  0  0
    8.4005   47.8878   29.8315 C   0  0  0  0  0  0  0  0  0  0  0  0
    7.0186   47.6577   29.8479 C   0  0  0  0  0  0  0  0  0  0  0  0
    6.1809   48.5981   29.2261 O   0  0  0  0  0  0  0  0  0  0  0  0
    4.7509   48.5690   29.2419 C   0  0  2  0  0  0  0  0  0  0  0  0
    4.2276   49.6320   28.2774 C   0  0  0  0  0  0  0  0  0  0  0  0
    4.2278   48.8353   30.6433 C   0  0  0  0  0  0  0  0  0  0  0  0
    4.8202   49.8760   31.4000 C   0  0  0  0  0  0  0  0  0  0  0  0
    3.2002   48.0322   31.2392 C   0  0  0  0  0  0  0  0  0  0  0  0
    4.4078   50.0590   32.7131 C   0  0  0  0  0  0  0  0  0  0  0  0
    2.8323   48.2556   32.5861 C   0  0  0  0  0  0  0  0  0  0  0  0
    2.5167   47.0113   30.4955 N   0  0  0  0  0  0  0  0  0  0  0  0
    4.8517   50.9916   33.6308 O   0  0  0  0  0  0  0  0  0  0  0  0
    3.4598   49.2799   33.2827 C   0  0  0  0  0  0  0  0  0  0  0  0
    2.0119   47.2886   29.2462 O   0  0  0  0  0  0  0  0  0  0  0  0
    2.1820   45.9483   31.0580 O   0  0  0  0  0  0  0  0  0  0  0  0
    4.1341   50.7836   34.8550 C   0  0  0  0  0  0  0  0  0  0  0  0
    3.2556   49.6816   34.5888 O   0  0  0  0  0  0  0  0  0  0  0  0
    8.8120   40.1851   34.2133 O   0  0  0  0  0  0  0  0  0  0  0  0
   11.2402   40.7947   33.3700 O   0  0  0  0  0  0  0  0  0  0  0  0
   10.9144   40.6914   31.9982 C   0  0  0  0  0  0  0  0  0  0  0  0
   11.5270   39.3912   31.4385 C   0  0  0  0  0  0  0  0  0  0  0  0
   12.7520   39.0911   32.0836 O   0  0  0  0  0  0  0  0  0  0  0  0
   10.6114   38.1932   31.6451 C   0  0  0  0  0  0  0  0  0  0  0  0
   12.9413   37.6838   32.0297 C   0  0  0  0  0  0  0  0  0  0  0  0
    9.6065   38.0878   30.6599 O   0  0  0  0  0  0  0  0  0  0  0  0
   11.5822   37.0198   31.6877 C   0  0  0  0  0  0  0  0  0  0  0  0
   13.4840   37.2105   33.3254 N   0  0  0  0  0  0  0  0  0  0  0  0
   11.6179   36.3072   30.4690 O   0  0  0  0  0  0  0  0  0  0  0  0
   14.4797   36.3309   33.5738 C   0  0  0  0  0  0  0  0  0  0  0  0
   13.1136   37.6269   34.5702 C   0  0  0  0  0  0  0  0  0  0  0  0
   15.2074   35.6152   32.6747 N   0  0  0  0  0  0  0  0  0  0  0  0
   14.6756   36.2298   34.9190 C   0  0  0  0  0  0  0  0  0  0  0  0
   13.8217   37.0446   35.5793 N   0  0  0  0  0  0  0  0  0  0  0  0
   16.1643   34.7603   33.1551 C   0  0  0  0  0  0  0  0  0  0  0  0
   15.6528   35.3503   35.4136 C   0  0  0  0  0  0  0  0  0  0  0  0
   16.3798   34.6316   34.5046 N   0  0  0  0  0  0  0  0  0  0  0  0
   15.9004   35.1930   36.8094 N   0  0  0  0  0  0  0  0  0  0  0  0
    9.0119   45.4319   33.6712 H   0  0  0  0  0  0  0  0  0  0  0  0
   10.7259   46.9689   33.1216 H   0  0  0  0  0  0  0  0  0  0  0  0
   11.8907   45.7660   32.9477 H   0  0  0  0  0  0  0  0  0  0  0  0
    9.3426   43.8331   31.4759 H   0  0  0  0  0  0  0  0  0  0  0  0
   10.7236   44.8825   31.1559 H   0  0  0  0  0  0  0  0  0  0  0  0
    7.0103   44.7148   31.5806 H   0  0  0  0  0  0  0  0  0  0  0  0
   10.3460   47.1858   30.4093 H   0  0  0  0  0  0  0  0  0  0  0  0
    5.4670   46.2820   30.5095 H   0  0  0  0  0  0  0  0  0  0  0  0
    8.7936   48.7705   29.3431 H   0  0  0  0  0  0  0  0  0  0  0  0
    4.4220   47.5807   28.8601 H   0  0  0  0  0  0  0  0  0  0  0  0
    4.5920   50.6400   28.5699 H   0  0  0  0  0  0  0  0  0  0  0  0
    3.1169   49.6368   28.2719 H   0  0  0  0  0  0  0  0  0  0  0  0
    4.5841   49.4123   27.2487 H   0  0  0  0  0  0  0  0  0  0  0  0
    5.5955   50.5073   30.9844 H   0  0  0  0  0  0  0  0  0  0  0  0
    2.0638   47.6637   33.0662 H   0  0  0  0  0  0  0  0  0  0  0  0
    4.8379   50.5235   35.6732 H   0  0  0  0  0  0  0  0  0  0  0  0
    3.5458   51.6888   35.1138 H   0  0  0  0  0  0  0  0  0  0  0  0
   11.3777   41.5549   31.4744 H   0  0  0  0  0  0  0  0  0  0  0  0
    9.8234   40.7201   31.7654 H   0  0  0  0  0  0  0  0  0  0  0  0
   11.7312   39.5363   30.3532 H   0  0  0  0  0  0  0  0  0  0  0  0
   10.1203   38.2697   32.6410 H   0  0  0  0  0  0  0  0  0  0  0  0
   13.6850   37.4639   31.2321 H   0  0  0  0  0  0  0  0  0  0  0  0
   10.0251   38.1793   29.7654 H   0  0  0  0  0  0  0  0  0  0  0  0
   11.2757   36.3135   32.4907 H   0  0  0  0  0  0  0  0  0  0  0  0
   11.9839   36.9111   29.7708 H   0  0  0  0  0  0  0  0  0  0  0  0
   12.3307   38.3537   34.7457 H   0  0  0  0  0  0  0  0  0  0  0  0
   16.7566   34.1787   32.4623 H   0  0  0  0  0  0  0  0  0  0  0  0
   15.3535   35.7355   37.5144 H   0  0  0  0  0  0  0  0  0  0  0  0
   16.6353   34.5301   37.1419 H   0  0  0  0  0  0  0  0  0  0  0  0
  1  2  2  0
  1  3  1  0
  3  4  1  0
  4  5  1  0
  6  1  1  0
  7  6  1  0
  6  8  1  0
  8  9  1  0
  9 10  2  0
 11  9  1  0
 10 12  1  0
 13 11  2  0
 12 14  2  0
 14 13  1  0
 14 15  1  0
 15 16  1  0
 16 17  1  0
 16 18  1  0
 18 19  2  0
 20 18  1  0
 19 21  1  0
 22 20  2  0
 20 23  1  0
 21 24  1  0
 21 25  2  0
 25 22  1  0
 23 26  1  0
 23 27  2  0
 24 28  1  0
 25 29  1  0
 28 29  1  0
  4 30  2  0
  4 31  1  0
 32 31  1  0
 32 33  1  0
 33 34  1  0
 33 35  1  0
 34 36  1  0
 35 37  1  0
 35 38  1  0
 38 36  1  0
 36 39  1  0
 38 40  1  0
 41 39  1  0
 42 39  1  0
 43 41  2  0
 41 44  1  0
 45 42  2  0
 46 43  1  0
 44 47  2  0
 44 45  1  0
 48 46  2  0
 48 47  1  0
 47 49  1  0
  6 50  1  1
  7 51  1  0
  7 52  1  0
  8 53  1  0
  8 54  1  0
 10 55  1  0
 11 56  1  0
 12 57  1  0
 13 58  1  0
 16 59  1  6
 17 60  1  0
 17 61  1  0
 17 62  1  0
 19 63  1  0
 22 64  1  0
 28 65  1  0
 28 66  1  0
 32 67  1  0
 32 68  1  0
 33 69  1  0
 35 70  1  0
 36 71  1  0
 37 72  1  0
 38 73  1  0
 40 74  1  0
 42 75  1  0
 46 76  1  0
 49 77  1  0
 49 78  1  0
M  CHG  3   5  -1  23   1  26  -1
M  END
>  <EmbedRMS>  (270) 
0.0808195860091

$$$$

     RDKit          3D

 78 83  0  0  0  0  0  0  0  0999 V2000
   10.2834   43.7662   33.8252 C   0  0  0  0  0  0  0  0  0  0  0  0
   11.4101   43.5931   34.3750 O   0  0  0  0  0  0  0  0  0  0  0  0
    9.3637   42.7255   33.7347 O   0  0  0  0  0  0  0  0  0  0  0  0
    9.8903   41.2267   34.2942 P   0  0  0  0  0  0  0  0  0  0  0  0
   10.3734   41.4562   35.8836 O   0  0  0  0  0  0  0  0  0  0  0  0
    9.9546   45.0695   33.2030 C   0  0  1  0  0  0  0  0  0  0  0  0
   11.0273   46.0321   33.4752 N   0  0  0  0  0  0  0  0  0  0  0  0
    9.7463   44.8483   31.6870 C   0  0  0  0  0  0  0  0  0  0  0  0
    8.7920   45.8411   31.0839 C   0  0  0  0  0  0  0  0  0  0  0  0
    7.4038   45.6020   31.1004 C   0  0  0  0  0  0  0  0  0  0  0  0
    9.2826   46.9899   30.4429 C   0  0  0  0  0  0  0  0  0  0  0  0
    6.5241   46.5046   30.4867 C   0  0  0  0  0  0  0  0  0  0  0  0
    8.4014   47.8913   29.8341 C   0  0  0  0  0  0  0  0  0  0  0  0
    7.0211   47.6464   29.8437 C   0  0  0  0  0  0  0  0  0  0  0  0
    6.1429   48.5548   29.2473 O   0  0  0  0  0  0  0  0  0  0  0  0
    5.7803   48.5266   27.8631 C   0  0  2  0  0  0  0  0  0  0  0  0
    4.7938   47.3921   27.5675 C   0  0  0  0  0  0  0  0  0  0  0  0
    7.0081   48.5892   26.9547 C   0  0  0  0  0  0  0  0  0  0  0  0
    7.4619   49.8789   26.5794 C   0  0  0  0  0  0  0  0  0  0  0  0
    7.7786   47.4441   26.5502 C   0  0  0  0  0  0  0  0  0  0  0  0
    8.6276   49.9890   25.8326 C   0  0  0  0  0  0  0  0  0  0  0  0
    8.9595   47.6174   25.7977 C   0  0  0  0  0  0  0  0  0  0  0  0
    7.3881   46.1095   26.8753 N   0  0  0  0  0  0  0  0  0  0  0  0
    9.2441   51.1343   25.3666 O   0  0  0  0  0  0  0  0  0  0  0  0
    9.3456   48.9061   25.4596 C   0  0  0  0  0  0  0  0  0  0  0  0
    8.1582   45.3887   27.7568 O   0  0  0  0  0  0  0  0  0  0  0  0
    6.6454   45.4910   26.0860 O   0  0  0  0  0  0  0  0  0  0  0  0
   10.4247   50.7420   24.6531 C   0  0  0  0  0  0  0  0  0  0  0  0
   10.4514   49.3106   24.7370 O   0  0  0  0  0  0  0  0  0  0  0  0
    8.8122   40.1850   34.2130 O   0  0  0  0  0  0  0  0  0  0  0  0
   11.2407   40.7940   33.3693 O   0  0  0  0  0  0  0  0  0  0  0  0
   10.9152   40.6906   31.9973 C   0  0  0  0  0  0  0  0  0  0  0  0
   11.5252   39.3886   31.4375 C   0  0  0  0  0  0  0  0  0  0  0  0
   12.7500   39.0874   32.0799 O   0  0  0  0  0  0  0  0  0  0  0  0
   10.6092   38.1926   31.6469 C   0  0  0  0  0  0  0  0  0  0  0  0
   12.9332   37.6793   32.0294 C   0  0  0  0  0  0  0  0  0  0  0  0
    9.6122   38.0895   30.6542 O   0  0  0  0  0  0  0  0  0  0  0  0
   11.5743   37.0145   31.7024 C   0  0  0  0  0  0  0  0  0  0  0  0
   13.4844   37.2108   33.3241 N   0  0  0  0  0  0  0  0  0  0  0  0
   11.6297   36.3239   30.4740 O   0  0  0  0  0  0  0  0  0  0  0  0
   14.4802   36.3313   33.5726 C   0  0  0  0  0  0  0  0  0  0  0  0
   13.1139   37.6267   34.5692 C   0  0  0  0  0  0  0  0  0  0  0  0
   15.2075   35.6149   32.6739 N   0  0  0  0  0  0  0  0  0  0  0  0
   14.6761   36.2303   34.9181 C   0  0  0  0  0  0  0  0  0  0  0  0
   13.8220   37.0447   35.5785 N   0  0  0  0  0  0  0  0  0  0  0  0
   16.1643   34.7600   33.1547 C   0  0  0  0  0  0  0  0  0  0  0  0
   15.6529   35.3505   35.4130 C   0  0  0  0  0  0  0  0  0  0  0  0
   16.3798   34.6315   34.5042 N   0  0  0  0  0  0  0  0  0  0  0  0
   15.9002   35.1932   36.8090 N   0  0  0  0  0  0  0  0  0  0  0  0
    9.0120   45.4317   33.6709 H   0  0  0  0  0  0  0  0  0  0  0  0
   11.8904   45.7659   32.9463 H   0  0  0  0  0  0  0  0  0  0  0  0
   10.7258   46.9688   33.1211 H   0  0  0  0  0  0  0  0  0  0  0  0
   10.7225   44.8820   31.1547 H   0  0  0  0  0  0  0  0  0  0  0  0
    9.3411   43.8333   31.4754 H   0  0  0  0  0  0  0  0  0  0  0  0
    7.0066   44.7187   31.5852 H   0  0  0  0  0  0  0  0  0  0  0  0
   10.3467   47.1889   30.4127 H   0  0  0  0  0  0  0  0  0  0  0  0
    5.4585   46.3164   30.5114 H   0  0  0  0  0  0  0  0  0  0  0  0
    8.7914   48.7772   29.3495 H   0  0  0  0  0  0  0  0  0  0  0  0
    5.1917   49.4535   27.6831 H   0  0  0  0  0  0  0  0  0  0  0  0
    3.8188   47.6159   28.0507 H   0  0  0  0  0  0  0  0  0  0  0  0
    4.6246   47.3007   26.4736 H   0  0  0  0  0  0  0  0  0  0  0  0
    5.1441   46.4264   27.9806 H   0  0  0  0  0  0  0  0  0  0  0  0
    6.9327   50.7754   26.8772 H   0  0  0  0  0  0  0  0  0  0  0  0
    9.5531   46.7681   25.4842 H   0  0  0  0  0  0  0  0  0  0  0  0
   10.3566   51.0625   23.5923 H   0  0  0  0  0  0  0  0  0  0  0  0
   11.3267   51.1711   25.1376 H   0  0  0  0  0  0  0  0  0  0  0  0
    9.8243   40.7217   31.7642 H   0  0  0  0  0  0  0  0  0  0  0  0
   11.3802   41.5529   31.4733 H   0  0  0  0  0  0  0  0  0  0  0  0
   11.7266   39.5311   30.3513 H   0  0  0  0  0  0  0  0  0  0  0  0
   10.1110   38.2747   32.6387 H   0  0  0  0  0  0  0  0  0  0  0  0
   13.6652   37.4519   31.2226 H   0  0  0  0  0  0  0  0  0  0  0  0
   10.0511   38.1143   29.7645 H   0  0  0  0  0  0  0  0  0  0  0  0
   11.2762   36.3142   32.5190 H   0  0  0  0  0  0  0  0  0  0  0  0
   10.8593   35.6978   30.4640 H   0  0  0  0  0  0  0  0  0  0  0  0
   12.3295   38.3519   34.7449 H   0  0  0  0  0  0  0  0  0  0  0  0
   16.7563   34.1779   32.4620 H   0  0  0  0  0  0  0  0  0  0  0  0
   15.3534   35.7359   37.5138 H   0  0  0  0  0  0  0  0  0  0  0  0
   16.6348   34.5300   37.1416 H   0  0  0  0  0  0  0  0  0  0  0  0
  1  2  2  0
  1  3  1  0
  3  4  1  0
  4  5  1  0
  6  1  1  0
  7  6  1  0
  6  8  1  0
  8  9  1  0
  9 10  2  0
 11  9  1  0
 10 12  1  0
 13 11  2  0
 12 14  2  0
 14 13  1  0
 14 15  1  0
 15 16  1  0
 16 17  1  0
 16 18  1  0
 18 19  2  0
 20 18  1  0
 19 21  1  0
 22 20  2  0
 20 23  1  0
 21 24  1  0
 21 25  2  0
 25 22  1  0
 23 26  1  0
 23 27  2  0
 24 28  1  0
 25 29  1  0
 28 29  1  0
  4 30  2  0
  4 31  1  0
 32 31  1  0
 32 33  1  0
 33 34  1  0
 33 35  1  0
 34 36  1  0
 35 37  1  0
 35 38  1  0
 38 36  1  0
 36 39  1  0
 38 40  1  0
 41 39  1  0
 42 39  1  0
 43 41  2  0
 41 44  1  0
 45 42  2  0
 46 43  1  0
 44 47  2  0
 44 45  1  0
 48 46  2  0
 48 47  1  0
 47 49  1  0
  6 50  1  1
  7 51  1  0
  7 52  1  0
  8 53  1  0
  8 54  1  0
 10 55  1  0
 11 56  1  0
 12 57  1  0
 13 58  1  0
 16 59  1  6
 17 60  1  0
 17 61  1  0
 17 62  1  0
 19 63  1  0
 22 64  1  0
 28 65  1  0
 28 66  1  0
 32 67  1  0
 32 68  1  0
 33 69  1  0
 35 70  1  0
 36 71  1  0
 37 72  1  0
 38 73  1  0
 40 74  1  0
 42 75  1  0
 46 76  1  0
 49 77  1  0
 49 78  1  0
M  CHG  3   5  -1  23   1  26  -1
M  END
>  <EmbedRMS>  (271) 
0.081934169892

$$$$

     RDKit          3D

 78 83  0  0  0  0  0  0  0  0999 V2000
   10.2838   43.7627   33.8277 C   0  0  0  0  0  0  0  0  0  0  0  0
   11.4103   43.5863   34.3766 O   0  0  0  0  0  0  0  0  0  0  0  0
    9.3628   42.7238   33.7357 O   0  0  0  0  0  0  0  0  0  0  0  0
    9.8893   41.2251   34.2943 P   0  0  0  0  0  0  0  0  0  0  0  0
   10.3731   41.4545   35.8836 O   0  0  0  0  0  0  0  0  0  0  0  0
    9.9549   45.0700   33.2063 C   0  0  1  0  0  0  0  0  0  0  0  0
   11.0198   46.0481   33.4571 N   0  0  0  0  0  0  0  0  0  0  0  0
    9.7507   44.8510   31.6922 C   0  0  0  0  0  0  0  0  0  0  0  0
    8.7946   45.8416   31.0866 C   0  0  0  0  0  0  0  0  0  0  0  0
    7.4079   45.6007   31.1005 C   0  0  0  0  0  0  0  0  0  0  0  0
    9.2827   46.9892   30.4449 C   0  0  0  0  0  0  0  0  0  0  0  0
    6.5254   46.5002   30.4860 C   0  0  0  0  0  0  0  0  0  0  0  0
    8.4008   47.8883   29.8341 C   0  0  0  0  0  0  0  0  0  0  0  0
    7.0191   47.6551   29.8440 C   0  0  0  0  0  0  0  0  0  0  0  0
    6.1868   48.5961   29.2148 O   0  0  0  0  0  0  0  0  0  0  0  0
    4.7735   48.4761   29.0239 C   0  0  2  0  0  0  0  0  0  0  0  0
    4.4751   47.4601   27.9156 C   0  0  0  0  0  0  0  0  0  0  0  0
    4.2066   49.8305   28.6415 C   0  0  0  0  0  0  0  0  0  0  0  0
    4.9076   50.6133   27.6905 C   0  0  0  0  0  0  0  0  0  0  0  0
    3.0098   50.3564   29.2356 C   0  0  0  0  0  0  0  0  0  0  0  0
    4.4320   51.8841   27.3959 C   0  0  0  0  0  0  0  0  0  0  0  0
    2.5851   51.6643   28.9092 C   0  0  0  0  0  0  0  0  0  0  0  0
    2.2086   49.5819   30.1418 N   0  0  0  0  0  0  0  0  0  0  0  0
    4.9554   52.8153   26.5196 O   0  0  0  0  0  0  0  0  0  0  0  0
    3.3235   52.3895   27.9837 C   0  0  0  0  0  0  0  0  0  0  0  0
    1.5654   50.2040   31.1868 O   0  0  0  0  0  0  0  0  0  0  0  0
    1.8960   48.4075   29.8570 O   0  0  0  0  0  0  0  0  0  0  0  0
    4.1195   53.9800   26.5608 C   0  0  0  0  0  0  0  0  0  0  0  0
    3.0895   53.6654   27.5079 O   0  0  0  0  0  0  0  0  0  0  0  0
    8.8113   40.1835   34.2130 O   0  0  0  0  0  0  0  0  0  0  0  0
   11.2397   40.7943   33.3684 O   0  0  0  0  0  0  0  0  0  0  0  0
   10.9125   40.6875   31.9969 C   0  0  0  0  0  0  0  0  0  0  0  0
   11.5169   39.3810   31.4420 C   0  0  0  0  0  0  0  0  0  0  0  0
   12.7500   39.0880   32.0758 O   0  0  0  0  0  0  0  0  0  0  0  0
   10.6043   38.1892   31.6658 C   0  0  0  0  0  0  0  0  0  0  0  0
   12.9395   37.6813   32.0279 C   0  0  0  0  0  0  0  0  0  0  0  0
    9.6353   38.0950   30.6499 O   0  0  0  0  0  0  0  0  0  0  0  0
   11.5804   37.0190   31.6934 C   0  0  0  0  0  0  0  0  0  0  0  0
   13.4851   37.2119   33.3244 N   0  0  0  0  0  0  0  0  0  0  0  0
   11.6118   36.3188   30.4673 O   0  0  0  0  0  0  0  0  0  0  0  0
   14.4801   36.3316   33.5732 C   0  0  0  0  0  0  0  0  0  0  0  0
   13.1139   37.6277   34.5692 C   0  0  0  0  0  0  0  0  0  0  0  0
   15.2076   35.6154   32.6744 N   0  0  0  0  0  0  0  0  0  0  0  0
   14.6756   36.2303   34.9186 C   0  0  0  0  0  0  0  0  0  0  0  0
   13.8215   37.0451   35.5786 N   0  0  0  0  0  0  0  0  0  0  0  0
   16.1642   34.7602   33.1551 C   0  0  0  0  0  0  0  0  0  0  0  0
   15.6526   35.3505   35.4134 C   0  0  0  0  0  0  0  0  0  0  0  0
   16.3796   34.6316   34.5045 N   0  0  0  0  0  0  0  0  0  0  0  0
   15.9001   35.1933   36.8093 N   0  0  0  0  0  0  0  0  0  0  0  0
    9.0098   45.4350   33.6668 H   0  0  0  0  0  0  0  0  0  0  0  0
   11.1132   46.1993   34.4884 H   0  0  0  0  0  0  0  0  0  0  0  0
   11.9350   45.6933   33.0929 H   0  0  0  0  0  0  0  0  0  0  0  0
    9.3520   43.8343   31.4758 H   0  0  0  0  0  0  0  0  0  0  0  0
   10.7311   44.8930   31.1676 H   0  0  0  0  0  0  0  0  0  0  0  0
    7.0130   44.7159   31.5846 H   0  0  0  0  0  0  0  0  0  0  0  0
   10.3466   47.1898   30.4158 H   0  0  0  0  0  0  0  0  0  0  0  0
    5.4680   46.2834   30.5233 H   0  0  0  0  0  0  0  0  0  0  0  0
    8.7941   48.7708   29.3456 H   0  0  0  0  0  0  0  0  0  0  0  0
    4.3181   48.1360   29.9747 H   0  0  0  0  0  0  0  0  0  0  0  0
    4.8383   46.4521   28.2010 H   0  0  0  0  0  0  0  0  0  0  0  0
    3.3808   47.3959   27.7367 H   0  0  0  0  0  0  0  0  0  0  0  0
    4.9771   47.7577   26.9703 H   0  0  0  0  0  0  0  0  0  0  0  0
    5.8063   50.2490   27.2088 H   0  0  0  0  0  0  0  0  0  0  0  0
    1.6900   52.0911   29.3431 H   0  0  0  0  0  0  0  0  0  0  0  0
    3.6758   54.1698   25.5610 H   0  0  0  0  0  0  0  0  0  0  0  0
    4.7026   54.8592   26.9067 H   0  0  0  0  0  0  0  0  0  0  0  0
    9.8216   40.7222   31.7644 H   0  0  0  0  0  0  0  0  0  0  0  0
   11.3811   41.5456   31.4692 H   0  0  0  0  0  0  0  0  0  0  0  0
   11.6985   39.5089   30.3498 H   0  0  0  0  0  0  0  0  0  0  0  0
   10.1109   38.2736   32.6629 H   0  0  0  0  0  0  0  0  0  0  0  0
   13.6783   37.4561   31.2271 H   0  0  0  0  0  0  0  0  0  0  0  0
    9.0020   37.3859   30.9348 H   0  0  0  0  0  0  0  0  0  0  0  0
   11.2808   36.3052   32.4921 H   0  0  0  0  0  0  0  0  0  0  0  0
   11.8819   36.9599   29.7584 H   0  0  0  0  0  0  0  0  0  0  0  0
   12.3303   38.3538   34.7445 H   0  0  0  0  0  0  0  0  0  0  0  0
   16.7563   34.1783   32.4624 H   0  0  0  0  0  0  0  0  0  0  0  0
   16.6348   34.5301   37.1418 H   0  0  0  0  0  0  0  0  0  0  0  0
   15.3532   35.7359   37.5142 H   0  0  0  0  0  0  0  0  0  0  0  0
  1  2  2  0
  1  3  1  0
  3  4  1  0
  4  5  1  0
  6  1  1  0
  7  6  1  0
  6  8  1  0
  8  9  1  0
  9 10  2  0
 11  9  1  0
 10 12  1  0
 13 11  2  0
 12 14  2  0
 14 13  1  0
 14 15  1  0
 15 16  1  0
 16 17  1  0
 16 18  1  0
 18 19  2  0
 20 18  1  0
 19 21  1  0
 22 20  2  0
 20 23  1  0
 21 24  1  0
 21 25  2  0
 25 22  1  0
 23 26  1  0
 23 27  2  0
 24 28  1  0
 25 29  1  0
 28 29  1  0
  4 30  2  0
  4 31  1  0
 32 31  1  0
 32 33  1  0
 33 34  1  0
 33 35  1  0
 34 36  1  0
 35 37  1  0
 35 38  1  0
 38 36  1  0
 36 39  1  0
 38 40  1  0
 41 39  1  0
 42 39  1  0
 43 41  2  0
 41 44  1  0
 45 42  2  0
 46 43  1  0
 44 47  2  0
 44 45  1  0
 48 46  2  0
 48 47  1  0
 47 49  1  0
  6 50  1  1
  7 51  1  0
  7 52  1  0
  8 53  1  0
  8 54  1  0
 10 55  1  0
 11 56  1  0
 12 57  1  0
 13 58  1  0
 16 59  1  1
 17 60  1  0
 17 61  1  0
 17 62  1  0
 19 63  1  0
 22 64  1  0
 28 65  1  0
 28 66  1  0
 32 67  1  0
 32 68  1  0
 33 69  1  0
 35 70  1  0
 36 71  1  0
 37 72  1  0
 38 73  1  0
 40 74  1  0
 42 75  1  0
 46 76  1  0
 49 77  1  0
 49 78  1  0
M  CHG  3   5  -1  23   1  26  -1
M  END
>  <EmbedRMS>  (272) 
0.082452459529

$$$$

     RDKit          3D

 78 83  0  0  0  0  0  0  0  0999 V2000
   10.2802   43.7665   33.8247 C   0  0  0  0  0  0  0  0  0  0  0  0
   11.4109   43.5920   34.3664 O   0  0  0  0  0  0  0  0  0  0  0  0
    9.3615   42.7251   33.7346 O   0  0  0  0  0  0  0  0  0  0  0  0
    9.8896   41.2270   34.2945 P   0  0  0  0  0  0  0  0  0  0  0  0
   10.3731   41.4569   35.8837 O   0  0  0  0  0  0  0  0  0  0  0  0
    9.9458   45.0737   33.2106 C   0  0  1  0  0  0  0  0  0  0  0  0
   11.0265   46.0292   33.4702 N   0  0  0  0  0  0  0  0  0  0  0  0
    9.7536   44.8539   31.6941 C   0  0  0  0  0  0  0  0  0  0  0  0
    8.7954   45.8408   31.0834 C   0  0  0  0  0  0  0  0  0  0  0  0
    7.4073   45.6012   31.1026 C   0  0  0  0  0  0  0  0  0  0  0  0
    9.2830   46.9896   30.4402 C   0  0  0  0  0  0  0  0  0  0  0  0
    6.5255   46.5025   30.4892 C   0  0  0  0  0  0  0  0  0  0  0  0
    8.4000   47.8910   29.8347 C   0  0  0  0  0  0  0  0  0  0  0  0
    7.0208   47.6448   29.8420 C   0  0  0  0  0  0  0  0  0  0  0  0
    6.1550   48.5551   29.2272 O   0  0  0  0  0  0  0  0  0  0  0  0
    5.5319   48.3616   27.9497 C   0  0  2  0  0  0  0  0  0  0  0  0
    4.5512   47.1831   27.9536 C   0  0  0  0  0  0  0  0  0  0  0  0
    6.5650   48.2492   26.8323 C   0  0  0  0  0  0  0  0  0  0  0  0
    7.4171   47.1154   26.7846 C   0  0  0  0  0  0  0  0  0  0  0  0
    6.7457   49.2915   25.8621 C   0  0  0  0  0  0  0  0  0  0  0  0
    8.4218   47.0752   25.8275 C   0  0  0  0  0  0  0  0  0  0  0  0
    7.7948   49.2018   24.9195 C   0  0  0  0  0  0  0  0  0  0  0  0
    5.8670   50.4232   25.8018 N   0  0  0  0  0  0  0  0  0  0  0  0
    9.3642   46.0878   25.6136 O   0  0  0  0  0  0  0  0  0  0  0  0
    8.6065   48.0765   24.9382 C   0  0  0  0  0  0  0  0  0  0  0  0
    4.5182   50.2279   25.6128 O   0  0  0  0  0  0  0  0  0  0  0  0
    6.3392   51.5676   25.6421 O   0  0  0  0  0  0  0  0  0  0  0  0
   10.1931   46.4978   24.5175 C   0  0  0  0  0  0  0  0  0  0  0  0
    9.6741   47.7729   24.1155 O   0  0  0  0  0  0  0  0  0  0  0  0
    8.8122   40.1844   34.2135 O   0  0  0  0  0  0  0  0  0  0  0  0
   11.2401   40.7950   33.3698 O   0  0  0  0  0  0  0  0  0  0  0  0
   10.9143   40.6914   31.9980 C   0  0  0  0  0  0  0  0  0  0  0  0
   11.5270   39.3912   31.4385 C   0  0  0  0  0  0  0  0  0  0  0  0
   12.7519   39.0911   32.0837 O   0  0  0  0  0  0  0  0  0  0  0  0
   10.6113   38.1932   31.6451 C   0  0  0  0  0  0  0  0  0  0  0  0
   12.9413   37.6838   32.0297 C   0  0  0  0  0  0  0  0  0  0  0  0
    9.6064   38.0878   30.6599 O   0  0  0  0  0  0  0  0  0  0  0  0
   11.5822   37.0198   31.6877 C   0  0  0  0  0  0  0  0  0  0  0  0
   13.4840   37.2105   33.3254 N   0  0  0  0  0  0  0  0  0  0  0  0
   11.6179   36.3072   30.4690 O   0  0  0  0  0  0  0  0  0  0  0  0
   14.4797   36.3309   33.5738 C   0  0  0  0  0  0  0  0  0  0  0  0
   13.1136   37.6269   34.5702 C   0  0  0  0  0  0  0  0  0  0  0  0
   15.2074   35.6152   32.6747 N   0  0  0  0  0  0  0  0  0  0  0  0
   14.6756   36.2298   34.9190 C   0  0  0  0  0  0  0  0  0  0  0  0
   13.8217   37.0445   35.5793 N   0  0  0  0  0  0  0  0  0  0  0  0
   16.1643   34.7603   33.1551 C   0  0  0  0  0  0  0  0  0  0  0  0
   15.6528   35.3503   35.4136 C   0  0  0  0  0  0  0  0  0  0  0  0
   16.3798   34.6316   34.5046 N   0  0  0  0  0  0  0  0  0  0  0  0
   15.9004   35.1930   36.8094 N   0  0  0  0  0  0  0  0  0  0  0  0
    8.9994   45.4383   33.6714 H   0  0  0  0  0  0  0  0  0  0  0  0
   11.0499   46.2280   34.4975 H   0  0  0  0  0  0  0  0  0  0  0  0
   10.7765   46.9368   33.0149 H   0  0  0  0  0  0  0  0  0  0  0  0
    9.3637   43.8353   31.4707 H   0  0  0  0  0  0  0  0  0  0  0  0
   10.7406   44.9074   31.1826 H   0  0  0  0  0  0  0  0  0  0  0  0
    7.0117   44.7204   31.5932 H   0  0  0  0  0  0  0  0  0  0  0  0
   10.3468   47.1896   30.4065 H   0  0  0  0  0  0  0  0  0  0  0  0
    5.4608   46.3162   30.5307 H   0  0  0  0  0  0  0  0  0  0  0  0
    8.7882   48.7737   29.3425 H   0  0  0  0  0  0  0  0  0  0  0  0
    4.9084   49.2616   27.7970 H   0  0  0  0  0  0  0  0  0  0  0  0
    3.8118   47.3134   28.7718 H   0  0  0  0  0  0  0  0  0  0  0  0
    4.0025   47.1481   26.9883 H   0  0  0  0  0  0  0  0  0  0  0  0
    5.0713   46.2144   28.0955 H   0  0  0  0  0  0  0  0  0  0  0  0
    7.3199   46.2952   27.4822 H   0  0  0  0  0  0  0  0  0  0  0  0
    7.9549   49.9764   24.1806 H   0  0  0  0  0  0  0  0  0  0  0  0
   11.2471   46.6009   24.8508 H   0  0  0  0  0  0  0  0  0  0  0  0
   10.1128   45.7708   23.6824 H   0  0  0  0  0  0  0  0  0  0  0  0
   11.3775   41.5548   31.4741 H   0  0  0  0  0  0  0  0  0  0  0  0
    9.8233   40.7201   31.7651 H   0  0  0  0  0  0  0  0  0  0  0  0
   11.7312   39.5362   30.3532 H   0  0  0  0  0  0  0  0  0  0  0  0
   10.1202   38.2696   32.6410 H   0  0  0  0  0  0  0  0  0  0  0  0
   13.6850   37.4639   31.2321 H   0  0  0  0  0  0  0  0  0  0  0  0
   10.0250   38.1792   29.7654 H   0  0  0  0  0  0  0  0  0  0  0  0
   11.2757   36.3135   32.4907 H   0  0  0  0  0  0  0  0  0  0  0  0
   11.9838   36.9111   29.7708 H   0  0  0  0  0  0  0  0  0  0  0  0
   12.3307   38.3536   34.7458 H   0  0  0  0  0  0  0  0  0  0  0  0
   16.7566   34.1787   32.4623 H   0  0  0  0  0  0  0  0  0  0  0  0
   16.6353   34.5301   37.1419 H   0  0  0  0  0  0  0  0  0  0  0  0
   15.3535   35.7355   37.5144 H   0  0  0  0  0  0  0  0  0  0  0  0
  1  2  2  0
  1  3  1  0
  3  4  1  0
  4  5  1  0
  6  1  1  0
  7  6  1  0
  6  8  1  0
  8  9  1  0
  9 10  2  0
 11  9  1  0
 10 12  1  0
 13 11  2  0
 12 14  2  0
 14 13  1  0
 14 15  1  0
 15 16  1  0
 16 17  1  0
 16 18  1  0
 18 19  2  0
 20 18  1  0
 19 21  1  0
 22 20  2  0
 20 23  1  0
 21 24  1  0
 21 25  2  0
 25 22  1  0
 23 26  1  0
 23 27  2  0
 24 28  1  0
 25 29  1  0
 28 29  1  0
  4 30  2  0
  4 31  1  0
 32 31  1  0
 32 33  1  0
 33 34  1  0
 33 35  1  0
 34 36  1  0
 35 37  1  0
 35 38  1  0
 38 36  1  0
 36 39  1  0
 38 40  1  0
 41 39  1  0
 42 39  1  0
 43 41  2  0
 41 44  1  0
 45 42  2  0
 46 43  1  0
 44 47  2  0
 44 45  1  0
 48 46  2  0
 48 47  1  0
 47 49  1  0
  6 50  1  1
  7 51  1  0
  7 52  1  0
  8 53  1  0
  8 54  1  0
 10 55  1  0
 11 56  1  0
 12 57  1  0
 13 58  1  0
 16 59  1  6
 17 60  1  0
 17 61  1  0
 17 62  1  0
 19 63  1  0
 22 64  1  0
 28 65  1  0
 28 66  1  0
 32 67  1  0
 32 68  1  0
 33 69  1  0
 35 70  1  0
 36 71  1  0
 37 72  1  0
 38 73  1  0
 40 74  1  0
 42 75  1  0
 46 76  1  0
 49 77  1  0
 49 78  1  0
M  CHG  3   5  -1  23   1  26  -1
M  END
>  <EmbedRMS>  (273) 
0.0807760555182

$$$$

     RDKit          3D

 78 83  0  0  0  0  0  0  0  0999 V2000
   10.2835   43.7661   33.8256 C   0  0  0  0  0  0  0  0  0  0  0  0
   11.4102   43.5929   34.3752 O   0  0  0  0  0  0  0  0  0  0  0  0
    9.3638   42.7255   33.7349 O   0  0  0  0  0  0  0  0  0  0  0  0
    9.8903   41.2267   34.2942 P   0  0  0  0  0  0  0  0  0  0  0  0
   10.3735   41.4561   35.8837 O   0  0  0  0  0  0  0  0  0  0  0  0
    9.9548   45.0695   33.2036 C   0  0  1  0  0  0  0  0  0  0  0  0
   11.0274   46.0322   33.4760 N   0  0  0  0  0  0  0  0  0  0  0  0
    9.7472   44.8483   31.6876 C   0  0  0  0  0  0  0  0  0  0  0  0
    8.7928   45.8410   31.0846 C   0  0  0  0  0  0  0  0  0  0  0  0
    7.4066   45.6015   31.0993 C   0  0  0  0  0  0  0  0  0  0  0  0
    9.2816   46.9876   30.4426 C   0  0  0  0  0  0  0  0  0  0  0  0
    6.5250   46.5012   30.4849 C   0  0  0  0  0  0  0  0  0  0  0  0
    8.4000   47.8871   29.8328 C   0  0  0  0  0  0  0  0  0  0  0  0
    7.0174   47.6575   29.8446 C   0  0  0  0  0  0  0  0  0  0  0  0
    6.1939   48.5990   29.1998 O   0  0  0  0  0  0  0  0  0  0  0  0
    4.7634   48.5895   29.0988 C   0  0  2  0  0  0  0  0  0  0  0  0
    4.1365   48.9226   30.4621 C   0  0  0  0  0  0  0  0  0  0  0  0
    4.2551   47.3254   28.4028 C   0  0  0  0  0  0  0  0  0  0  0  0
    3.2090   46.5493   28.9733 C   0  0  0  0  0  0  0  0  0  0  0  0
    4.8472   46.8841   27.1680 C   0  0  0  0  0  0  0  0  0  0  0  0
    2.8295   45.3732   28.3410 C   0  0  0  0  0  0  0  0  0  0  0  0
    4.4269   45.6689   26.5820 C   0  0  0  0  0  0  0  0  0  0  0  0
    5.8758   47.6392   26.5053 N   0  0  0  0  0  0  0  0  0  0  0  0
    1.8585   44.4681   28.7248 O   0  0  0  0  0  0  0  0  0  0  0  0
    3.4156   44.9492   27.1998 C   0  0  0  0  0  0  0  0  0  0  0  0
    6.8704   46.9833   25.8171 O   0  0  0  0  0  0  0  0  0  0  0  0
    5.7723   48.8762   26.3773 O   0  0  0  0  0  0  0  0  0  0  0  0
    1.8356   43.4078   27.7597 C   0  0  0  0  0  0  0  0  0  0  0  0
    2.8455   43.7549   26.8027 O   0  0  0  0  0  0  0  0  0  0  0  0
    8.8121   40.1850   34.2130 O   0  0  0  0  0  0  0  0  0  0  0  0
   11.2407   40.7939   33.3693 O   0  0  0  0  0  0  0  0  0  0  0  0
   10.9151   40.6905   31.9974 C   0  0  0  0  0  0  0  0  0  0  0  0
   11.5252   39.3886   31.4375 C   0  0  0  0  0  0  0  0  0  0  0  0
   12.7500   39.0874   32.0799 O   0  0  0  0  0  0  0  0  0  0  0  0
   10.6092   38.1926   31.6470 C   0  0  0  0  0  0  0  0  0  0  0  0
   12.9332   37.6793   32.0294 C   0  0  0  0  0  0  0  0  0  0  0  0
    9.6121   38.0895   30.6542 O   0  0  0  0  0  0  0  0  0  0  0  0
   11.5743   37.0145   31.7024 C   0  0  0  0  0  0  0  0  0  0  0  0
   13.4844   37.2108   33.3241 N   0  0  0  0  0  0  0  0  0  0  0  0
   11.6297   36.3239   30.4740 O   0  0  0  0  0  0  0  0  0  0  0  0
   14.4802   36.3313   33.5726 C   0  0  0  0  0  0  0  0  0  0  0  0
   13.1138   37.6267   34.5692 C   0  0  0  0  0  0  0  0  0  0  0  0
   15.2075   35.6149   32.6739 N   0  0  0  0  0  0  0  0  0  0  0  0
   14.6761   36.2303   34.9181 C   0  0  0  0  0  0  0  0  0  0  0  0
   13.8220   37.0447   35.5785 N   0  0  0  0  0  0  0  0  0  0  0  0
   16.1643   34.7600   33.1547 C   0  0  0  0  0  0  0  0  0  0  0  0
   15.6529   35.3505   35.4130 C   0  0  0  0  0  0  0  0  0  0  0  0
   16.3798   34.6315   34.5042 N   0  0  0  0  0  0  0  0  0  0  0  0
   15.9003   35.1932   36.8090 N   0  0  0  0  0  0  0  0  0  0  0  0
    9.0121   45.4316   33.6712 H   0  0  0  0  0  0  0  0  0  0  0  0
   11.8908   45.7659   32.9476 H   0  0  0  0  0  0  0  0  0  0  0  0
   10.7261   46.9688   33.1215 H   0  0  0  0  0  0  0  0  0  0  0  0
    9.3425   43.8331   31.4758 H   0  0  0  0  0  0  0  0  0  0  0  0
   10.7237   44.8823   31.1558 H   0  0  0  0  0  0  0  0  0  0  0  0
    7.0111   44.7155   31.5809 H   0  0  0  0  0  0  0  0  0  0  0  0
   10.3458   47.1860   30.4102 H   0  0  0  0  0  0  0  0  0  0  0  0
    5.4725   46.2753   30.5164 H   0  0  0  0  0  0  0  0  0  0  0  0
    8.7946   48.7673   29.3410 H   0  0  0  0  0  0  0  0  0  0  0  0
    4.4829   49.4394   28.4416 H   0  0  0  0  0  0  0  0  0  0  0  0
    4.2930   48.1106   31.1996 H   0  0  0  0  0  0  0  0  0  0  0  0
    3.0478   49.1123   30.3493 H   0  0  0  0  0  0  0  0  0  0  0  0
    4.6001   49.8477   30.8656 H   0  0  0  0  0  0  0  0  0  0  0  0
    2.7101   46.8254   29.8905 H   0  0  0  0  0  0  0  0  0  0  0  0
    4.8622   45.3074   25.6593 H   0  0  0  0  0  0  0  0  0  0  0  0
    0.8418   43.3580   27.2672 H   0  0  0  0  0  0  0  0  0  0  0  0
    2.0840   42.4409   28.2454 H   0  0  0  0  0  0  0  0  0  0  0  0
   11.3802   41.5529   31.4733 H   0  0  0  0  0  0  0  0  0  0  0  0
    9.8243   40.7216   31.7643 H   0  0  0  0  0  0  0  0  0  0  0  0
   11.7266   39.5311   30.3513 H   0  0  0  0  0  0  0  0  0  0  0  0
   10.1110   38.2747   32.6387 H   0  0  0  0  0  0  0  0  0  0  0  0
   13.6652   37.4519   31.2226 H   0  0  0  0  0  0  0  0  0  0  0  0
   10.0511   38.1143   29.7645 H   0  0  0  0  0  0  0  0  0  0  0  0
   11.2762   36.3141   32.5189 H   0  0  0  0  0  0  0  0  0  0  0  0
   10.8592   35.6978   30.4640 H   0  0  0  0  0  0  0  0  0  0  0  0
   12.3295   38.3518   34.7449 H   0  0  0  0  0  0  0  0  0  0  0  0
   16.7564   34.1780   32.4620 H   0  0  0  0  0  0  0  0  0  0  0  0
   15.3534   35.7359   37.5138 H   0  0  0  0  0  0  0  0  0  0  0  0
   16.6349   34.5300   37.1415 H   0  0  0  0  0  0  0  0  0  0  0  0
  1  2  2  0
  1  3  1  0
  3  4  1  0
  4  5  1  0
  6  1  1  0
  7  6  1  0
  6  8  1  0
  8  9  1  0
  9 10  2  0
 11  9  1  0
 10 12  1  0
 13 11  2  0
 12 14  2  0
 14 13  1  0
 14 15  1  0
 15 16  1  0
 16 17  1  0
 16 18  1  0
 18 19  2  0
 20 18  1  0
 19 21  1  0
 22 20  2  0
 20 23  1  0
 21 24  1  0
 21 25  2  0
 25 22  1  0
 23 26  1  0
 23 27  2  0
 24 28  1  0
 25 29  1  0
 28 29  1  0
  4 30  2  0
  4 31  1  0
 32 31  1  0
 32 33  1  0
 33 34  1  0
 33 35  1  0
 34 36  1  0
 35 37  1  0
 35 38  1  0
 38 36  1  0
 36 39  1  0
 38 40  1  0
 41 39  1  0
 42 39  1  0
 43 41  2  0
 41 44  1  0
 45 42  2  0
 46 43  1  0
 44 47  2  0
 44 45  1  0
 48 46  2  0
 48 47  1  0
 47 49  1  0
  6 50  1  1
  7 51  1  0
  7 52  1  0
  8 53  1  0
  8 54  1  0
 10 55  1  0
 11 56  1  0
 12 57  1  0
 13 58  1  0
 16 59  1  6
 17 60  1  0
 17 61  1  0
 17 62  1  0
 19 63  1  0
 22 64  1  0
 28 65  1  0
 28 66  1  0
 32 67  1  0
 32 68  1  0
 33 69  1  0
 35 70  1  0
 36 71  1  0
 37 72  1  0
 38 73  1  0
 40 74  1  0
 42 75  1  0
 46 76  1  0
 49 77  1  0
 49 78  1  0
M  CHG  3   5  -1  23   1  26  -1
M  END
>  <EmbedRMS>  (274) 
0.081796867562

$$$$

     RDKit          3D

 78 83  0  0  0  0  0  0  0  0999 V2000
   10.2838   43.7627   33.8277 C   0  0  0  0  0  0  0  0  0  0  0  0
   11.4103   43.5863   34.3766 O   0  0  0  0  0  0  0  0  0  0  0  0
    9.3628   42.7238   33.7357 O   0  0  0  0  0  0  0  0  0  0  0  0
    9.8893   41.2251   34.2943 P   0  0  0  0  0  0  0  0  0  0  0  0
   10.3731   41.4545   35.8837 O   0  0  0  0  0  0  0  0  0  0  0  0
    9.9548   45.0700   33.2063 C   0  0  1  0  0  0  0  0  0  0  0  0
   11.0198   46.0481   33.4567 N   0  0  0  0  0  0  0  0  0  0  0  0
    9.7500   44.8508   31.6923 C   0  0  0  0  0  0  0  0  0  0  0  0
    8.7942   45.8418   31.0870 C   0  0  0  0  0  0  0  0  0  0  0  0
    7.4074   45.6012   31.1003 C   0  0  0  0  0  0  0  0  0  0  0  0
    9.2832   46.9892   30.4450 C   0  0  0  0  0  0  0  0  0  0  0  0
    6.5279   46.5021   30.4846 C   0  0  0  0  0  0  0  0  0  0  0  0
    8.4038   47.8902   29.8330 C   0  0  0  0  0  0  0  0  0  0  0  0
    7.0147   47.6510   29.8464 C   0  0  0  0  0  0  0  0  0  0  0  0
    6.0891   48.5144   29.2370 O   0  0  0  0  0  0  0  0  0  0  0  0
    6.4206   49.6917   28.4974 C   0  0  2  0  0  0  0  0  0  0  0  0
    5.1581   50.5110   28.2321 C   0  0  0  0  0  0  0  0  0  0  0  0
    7.1357   49.3744   27.1919 C   0  0  0  0  0  0  0  0  0  0  0  0
    8.0822   50.3203   26.7286 C   0  0  0  0  0  0  0  0  0  0  0  0
    6.9348   48.1622   26.4439 C   0  0  0  0  0  0  0  0  0  0  0  0
    8.8055   50.0325   25.5794 C   0  0  0  0  0  0  0  0  0  0  0  0
    7.7135   47.9193   25.2889 C   0  0  0  0  0  0  0  0  0  0  0  0
    5.9690   47.1736   26.8345 N   0  0  0  0  0  0  0  0  0  0  0  0
    9.7745   50.7984   24.9601 O   0  0  0  0  0  0  0  0  0  0  0  0
    8.6319   48.8812   24.8923 C   0  0  0  0  0  0  0  0  0  0  0  0
    4.6675   47.5357   27.0891 O   0  0  0  0  0  0  0  0  0  0  0  0
    6.2479   45.9605   26.7395 O   0  0  0  0  0  0  0  0  0  0  0  0
   10.2375   50.0792   23.8089 C   0  0  0  0  0  0  0  0  0  0  0  0
    9.4816   48.8605   23.8031 O   0  0  0  0  0  0  0  0  0  0  0  0
    8.8113   40.1835   34.2130 O   0  0  0  0  0  0  0  0  0  0  0  0
   11.2397   40.7942   33.3684 O   0  0  0  0  0  0  0  0  0  0  0  0
   10.9125   40.6875   31.9969 C   0  0  0  0  0  0  0  0  0  0  0  0
   11.5169   39.3810   31.4420 C   0  0  0  0  0  0  0  0  0  0  0  0
   12.7500   39.0880   32.0758 O   0  0  0  0  0  0  0  0  0  0  0  0
   10.6043   38.1892   31.6658 C   0  0  0  0  0  0  0  0  0  0  0  0
   12.9395   37.6813   32.0279 C   0  0  0  0  0  0  0  0  0  0  0  0
    9.6353   38.0951   30.6499 O   0  0  0  0  0  0  0  0  0  0  0  0
   11.5804   37.0190   31.6934 C   0  0  0  0  0  0  0  0  0  0  0  0
   13.4851   37.2119   33.3244 N   0  0  0  0  0  0  0  0  0  0  0  0
   11.6118   36.3188   30.4673 O   0  0  0  0  0  0  0  0  0  0  0  0
   14.4801   36.3316   33.5732 C   0  0  0  0  0  0  0  0  0  0  0  0
   13.1139   37.6277   34.5692 C   0  0  0  0  0  0  0  0  0  0  0  0
   15.2076   35.6154   32.6744 N   0  0  0  0  0  0  0  0  0  0  0  0
   14.6756   36.2303   34.9186 C   0  0  0  0  0  0  0  0  0  0  0  0
   13.8215   37.0451   35.5786 N   0  0  0  0  0  0  0  0  0  0  0  0
   16.1642   34.7602   33.1551 C   0  0  0  0  0  0  0  0  0  0  0  0
   15.6526   35.3505   35.4134 C   0  0  0  0  0  0  0  0  0  0  0  0
   16.3796   34.6316   34.5045 N   0  0  0  0  0  0  0  0  0  0  0  0
   15.9001   35.1933   36.8093 N   0  0  0  0  0  0  0  0  0  0  0  0
    9.0099   45.4350   33.6671 H   0  0  0  0  0  0  0  0  0  0  0  0
   11.9348   45.6932   33.0922 H   0  0  0  0  0  0  0  0  0  0  0  0
   11.1136   46.1992   34.4880 H   0  0  0  0  0  0  0  0  0  0  0  0
   10.7303   44.8922   31.1674 H   0  0  0  0  0  0  0  0  0  0  0  0
    9.3506   43.8343   31.4763 H   0  0  0  0  0  0  0  0  0  0  0  0
    7.0108   44.7159   31.5818 H   0  0  0  0  0  0  0  0  0  0  0  0
   10.3476   47.1880   30.4163 H   0  0  0  0  0  0  0  0  0  0  0  0
    5.4638   46.3035   30.4990 H   0  0  0  0  0  0  0  0  0  0  0  0
    8.8173   48.7642   29.3504 H   0  0  0  0  0  0  0  0  0  0  0  0
    7.0750   50.3236   29.1393 H   0  0  0  0  0  0  0  0  0  0  0  0
    5.4261   51.4824   27.7640 H   0  0  0  0  0  0  0  0  0  0  0  0
    4.6366   50.7174   29.1907 H   0  0  0  0  0  0  0  0  0  0  0  0
    4.4612   49.9753   27.5573 H   0  0  0  0  0  0  0  0  0  0  0  0
    8.2599   51.2479   27.2584 H   0  0  0  0  0  0  0  0  0  0  0  0
    7.5914   47.0141   24.7079 H   0  0  0  0  0  0  0  0  0  0  0  0
   11.3211   49.8576   23.9048 H   0  0  0  0  0  0  0  0  0  0  0  0
   10.0341   50.6607   22.8854 H   0  0  0  0  0  0  0  0  0  0  0  0
   11.3811   41.5456   31.4692 H   0  0  0  0  0  0  0  0  0  0  0  0
    9.8216   40.7223   31.7644 H   0  0  0  0  0  0  0  0  0  0  0  0
   11.6985   39.5089   30.3498 H   0  0  0  0  0  0  0  0  0  0  0  0
   10.1109   38.2736   32.6630 H   0  0  0  0  0  0  0  0  0  0  0  0
   13.6783   37.4561   31.2271 H   0  0  0  0  0  0  0  0  0  0  0  0
    9.0020   37.3859   30.9347 H   0  0  0  0  0  0  0  0  0  0  0  0
   11.2808   36.3052   32.4921 H   0  0  0  0  0  0  0  0  0  0  0  0
   11.8818   36.9599   29.7584 H   0  0  0  0  0  0  0  0  0  0  0  0
   12.3303   38.3538   34.7445 H   0  0  0  0  0  0  0  0  0  0  0  0
   16.7563   34.1783   32.4624 H   0  0  0  0  0  0  0  0  0  0  0  0
   16.6348   34.5301   37.1418 H   0  0  0  0  0  0  0  0  0  0  0  0
   15.3532   35.7359   37.5142 H   0  0  0  0  0  0  0  0  0  0  0  0
  1  2  2  0
  1  3  1  0
  3  4  1  0
  4  5  1  0
  6  1  1  0
  7  6  1  0
  6  8  1  0
  8  9  1  0
  9 10  2  0
 11  9  1  0
 10 12  1  0
 13 11  2  0
 12 14  2  0
 14 13  1  0
 14 15  1  0
 15 16  1  0
 16 17  1  0
 16 18  1  0
 18 19  2  0
 20 18  1  0
 19 21  1  0
 22 20  2  0
 20 23  1  0
 21 24  1  0
 21 25  2  0
 25 22  1  0
 23 26  1  0
 23 27  2  0
 24 28  1  0
 25 29  1  0
 28 29  1  0
  4 30  2  0
  4 31  1  0
 32 31  1  0
 32 33  1  0
 33 34  1  0
 33 35  1  0
 34 36  1  0
 35 37  1  0
 35 38  1  0
 38 36  1  0
 36 39  1  0
 38 40  1  0
 41 39  1  0
 42 39  1  0
 43 41  2  0
 41 44  1  0
 45 42  2  0
 46 43  1  0
 44 47  2  0
 44 45  1  0
 48 46  2  0
 48 47  1  0
 47 49  1  0
  6 50  1  1
  7 51  1  0
  7 52  1  0
  8 53  1  0
  8 54  1  0
 10 55  1  0
 11 56  1  0
 12 57  1  0
 13 58  1  0
 16 59  1  1
 17 60  1  0
 17 61  1  0
 17 62  1  0
 19 63  1  0
 22 64  1  0
 28 65  1  0
 28 66  1  0
 32 67  1  0
 32 68  1  0
 33 69  1  0
 35 70  1  0
 36 71  1  0
 37 72  1  0
 38 73  1  0
 40 74  1  0
 42 75  1  0
 46 76  1  0
 49 77  1  0
 49 78  1  0
M  CHG  3   5  -1  23   1  26  -1
M  END
>  <EmbedRMS>  (275) 
0.0824808350827

$$$$

     RDKit          3D

 78 83  0  0  0  0  0  0  0  0999 V2000
   10.2834   43.7661   33.8252 C   0  0  0  0  0  0  0  0  0  0  0  0
   11.4101   43.5932   34.3751 O   0  0  0  0  0  0  0  0  0  0  0  0
    9.3639   42.7253   33.7345 O   0  0  0  0  0  0  0  0  0  0  0  0
    9.8906   41.2265   34.2938 P   0  0  0  0  0  0  0  0  0  0  0  0
   10.3733   41.4560   35.8834 O   0  0  0  0  0  0  0  0  0  0  0  0
    9.9545   45.0694   33.2029 C   0  0  1  0  0  0  0  0  0  0  0  0
   11.0272   46.0322   33.4752 N   0  0  0  0  0  0  0  0  0  0  0  0
    9.7466   44.8481   31.6868 C   0  0  0  0  0  0  0  0  0  0  0  0
    8.7922   45.8405   31.0830 C   0  0  0  0  0  0  0  0  0  0  0  0
    7.4041   45.6021   31.1008 C   0  0  0  0  0  0  0  0  0  0  0  0
    9.2823   46.9896   30.4427 C   0  0  0  0  0  0  0  0  0  0  0  0
    6.5241   46.5046   30.4876 C   0  0  0  0  0  0  0  0  0  0  0  0
    8.4008   47.8919   29.8361 C   0  0  0  0  0  0  0  0  0  0  0  0
    7.0213   47.6467   29.8416 C   0  0  0  0  0  0  0  0  0  0  0  0
    6.1568   48.5580   29.2264 O   0  0  0  0  0  0  0  0  0  0  0  0
    5.5381   48.3671   27.9463 C   0  0  2  0  0  0  0  0  0  0  0  0
    4.5593   47.1870   27.9441 C   0  0  0  0  0  0  0  0  0  0  0  0
    6.5750   48.2593   26.8320 C   0  0  0  0  0  0  0  0  0  0  0  0
    7.4281   47.1263   26.7832 C   0  0  0  0  0  0  0  0  0  0  0  0
    6.7583   49.3053   25.8663 C   0  0  0  0  0  0  0  0  0  0  0  0
    8.4362   47.0904   25.8296 C   0  0  0  0  0  0  0  0  0  0  0  0
    7.8107   49.2197   24.9270 C   0  0  0  0  0  0  0  0  0  0  0  0
    5.8792   50.4367   25.8072 N   0  0  0  0  0  0  0  0  0  0  0  0
    9.3802   46.1045   25.6154 O   0  0  0  0  0  0  0  0  0  0  0  0
    8.6233   48.0950   24.9445 C   0  0  0  0  0  0  0  0  0  0  0  0
    4.5313   50.2414   25.6124 O   0  0  0  0  0  0  0  0  0  0  0  0
    6.3513   51.5820   25.6537 O   0  0  0  0  0  0  0  0  0  0  0  0
   10.2126   46.5191   24.5238 C   0  0  0  0  0  0  0  0  0  0  0  0
    9.6941   47.7952   24.1245 O   0  0  0  0  0  0  0  0  0  0  0  0
    8.8126   40.1848   34.2122 O   0  0  0  0  0  0  0  0  0  0  0  0
   11.2418   40.7943   33.3694 O   0  0  0  0  0  0  0  0  0  0  0  0
   10.9179   40.6904   31.9970 C   0  0  0  0  0  0  0  0  0  0  0  0
   11.5181   39.3814   31.4408 C   0  0  0  0  0  0  0  0  0  0  0  0
   12.7497   39.0870   32.0745 O   0  0  0  0  0  0  0  0  0  0  0  0
   10.6045   38.1892   31.6655 C   0  0  0  0  0  0  0  0  0  0  0  0
   12.9344   37.6801   32.0290 C   0  0  0  0  0  0  0  0  0  0  0  0
    9.6418   38.0758   30.6441 O   0  0  0  0  0  0  0  0  0  0  0  0
   11.5741   37.0170   31.7045 C   0  0  0  0  0  0  0  0  0  0  0  0
   13.4851   37.2126   33.3241 N   0  0  0  0  0  0  0  0  0  0  0  0
   11.6079   36.3407   30.4680 O   0  0  0  0  0  0  0  0  0  0  0  0
   14.4801   36.3321   33.5727 C   0  0  0  0  0  0  0  0  0  0  0  0
   13.1140   37.6277   34.5693 C   0  0  0  0  0  0  0  0  0  0  0  0
   15.2073   35.6155   32.6739 N   0  0  0  0  0  0  0  0  0  0  0  0
   14.6758   36.2306   34.9182 C   0  0  0  0  0  0  0  0  0  0  0  0
   13.8217   37.0451   35.5785 N   0  0  0  0  0  0  0  0  0  0  0  0
   16.1639   34.7602   33.1546 C   0  0  0  0  0  0  0  0  0  0  0  0
   15.6526   35.3506   35.4130 C   0  0  0  0  0  0  0  0  0  0  0  0
   16.3794   34.6316   34.5041 N   0  0  0  0  0  0  0  0  0  0  0  0
   15.9001   35.1933   36.8089 N   0  0  0  0  0  0  0  0  0  0  0  0
    9.0119   45.4317   33.6706 H   0  0  0  0  0  0  0  0  0  0  0  0
   10.7257   46.9688   33.1209 H   0  0  0  0  0  0  0  0  0  0  0  0
   11.8904   45.7659   32.9465 H   0  0  0  0  0  0  0  0  0  0  0  0
   10.7230   44.8818   31.1548 H   0  0  0  0  0  0  0  0  0  0  0  0
    9.3416   43.8329   31.4754 H   0  0  0  0  0  0  0  0  0  0  0  0
    7.0070   44.7208   31.5891 H   0  0  0  0  0  0  0  0  0  0  0  0
   10.3465   47.1882   30.4117 H   0  0  0  0  0  0  0  0  0  0  0  0
    5.4591   46.3191   30.5272 H   0  0  0  0  0  0  0  0  0  0  0  0
    8.7903   48.7747   29.3453 H   0  0  0  0  0  0  0  0  0  0  0  0
    4.9137   49.2665   27.7940 H   0  0  0  0  0  0  0  0  0  0  0  0
    4.0147   47.1528   26.9764 H   0  0  0  0  0  0  0  0  0  0  0  0
    3.8162   47.3148   28.7594 H   0  0  0  0  0  0  0  0  0  0  0  0
    5.0802   46.2189   28.0868 H   0  0  0  0  0  0  0  0  0  0  0  0
    7.3292   46.3037   27.4777 H   0  0  0  0  0  0  0  0  0  0  0  0
    7.9729   49.9972   24.1915 H   0  0  0  0  0  0  0  0  0  0  0  0
   11.2653   46.6218   24.8611 H   0  0  0  0  0  0  0  0  0  0  0  0
   10.1359   45.7950   23.6858 H   0  0  0  0  0  0  0  0  0  0  0  0
   11.3945   41.5459   31.4722 H   0  0  0  0  0  0  0  0  0  0  0  0
    9.8290   40.7386   31.7617 H   0  0  0  0  0  0  0  0  0  0  0  0
   11.6994   39.5069   30.3484 H   0  0  0  0  0  0  0  0  0  0  0  0
   10.1090   38.2635   32.6632 H   0  0  0  0  0  0  0  0  0  0  0  0
   13.6662   37.4515   31.2224 H   0  0  0  0  0  0  0  0  0  0  0  0
    8.9010   38.6926   30.8792 H   0  0  0  0  0  0  0  0  0  0  0  0
   11.2650   36.3083   32.5087 H   0  0  0  0  0  0  0  0  0  0  0  0
   12.1372   35.5140   30.6163 H   0  0  0  0  0  0  0  0  0  0  0  0
   12.3297   38.3530   34.7450 H   0  0  0  0  0  0  0  0  0  0  0  0
   16.7558   34.1781   32.4619 H   0  0  0  0  0  0  0  0  0  0  0  0
   15.3533   35.7360   37.5138 H   0  0  0  0  0  0  0  0  0  0  0  0
   16.6346   34.5300   37.1414 H   0  0  0  0  0  0  0  0  0  0  0  0
  1  2  2  0
  1  3  1  0
  3  4  1  0
  4  5  1  0
  6  1  1  0
  7  6  1  0
  6  8  1  0
  8  9  1  0
  9 10  2  0
 11  9  1  0
 10 12  1  0
 13 11  2  0
 12 14  2  0
 14 13  1  0
 14 15  1  0
 15 16  1  0
 16 17  1  0
 16 18  1  0
 18 19  2  0
 20 18  1  0
 19 21  1  0
 22 20  2  0
 20 23  1  0
 21 24  1  0
 21 25  2  0
 25 22  1  0
 23 26  1  0
 23 27  2  0
 24 28  1  0
 25 29  1  0
 28 29  1  0
  4 30  2  0
  4 31  1  0
 32 31  1  0
 32 33  1  0
 33 34  1  0
 33 35  1  0
 34 36  1  0
 35 37  1  0
 35 38  1  0
 38 36  1  0
 36 39  1  0
 38 40  1  0
 41 39  1  0
 42 39  1  0
 43 41  2  0
 41 44  1  0
 45 42  2  0
 46 43  1  0
 44 47  2  0
 44 45  1  0
 48 46  2  0
 48 47  1  0
 47 49  1  0
  6 50  1  1
  7 51  1  0
  7 52  1  0
  8 53  1  0
  8 54  1  0
 10 55  1  0
 11 56  1  0
 12 57  1  0
 13 58  1  0
 16 59  1  6
 17 60  1  0
 17 61  1  0
 17 62  1  0
 19 63  1  0
 22 64  1  0
 28 65  1  0
 28 66  1  0
 32 67  1  0
 32 68  1  0
 33 69  1  0
 35 70  1  0
 36 71  1  0
 37 72  1  0
 38 73  1  0
 40 74  1  0
 42 75  1  0
 46 76  1  0
 49 77  1  0
 49 78  1  0
M  CHG  3   5  -1  23   1  26  -1
M  END
>  <EmbedRMS>  (276) 
0.0829537827621

$$$$

     RDKit          3D

 78 83  0  0  0  0  0  0  0  0999 V2000
   10.2839   43.7626   33.8276 C   0  0  0  0  0  0  0  0  0  0  0  0
   11.4104   43.5863   34.3767 O   0  0  0  0  0  0  0  0  0  0  0  0
    9.3631   42.7236   33.7355 O   0  0  0  0  0  0  0  0  0  0  0  0
    9.8895   41.2250   34.2948 P   0  0  0  0  0  0  0  0  0  0  0  0
   10.3720   41.4547   35.8844 O   0  0  0  0  0  0  0  0  0  0  0  0
    9.9550   45.0699   33.2064 C   0  0  1  0  0  0  0  0  0  0  0  0
   11.0198   46.0481   33.4572 N   0  0  0  0  0  0  0  0  0  0  0  0
    9.7507   44.8510   31.6923 C   0  0  0  0  0  0  0  0  0  0  0  0
    8.7947   45.8419   31.0872 C   0  0  0  0  0  0  0  0  0  0  0  0
    7.4085   45.6009   31.1003 C   0  0  0  0  0  0  0  0  0  0  0  0
    9.2825   46.9888   30.4450 C   0  0  0  0  0  0  0  0  0  0  0  0
    6.5263   46.4999   30.4852 C   0  0  0  0  0  0  0  0  0  0  0  0
    8.4005   47.8870   29.8335 C   0  0  0  0  0  0  0  0  0  0  0  0
    7.0180   47.6564   29.8448 C   0  0  0  0  0  0  0  0  0  0  0  0
    6.1940   48.5972   29.1996 O   0  0  0  0  0  0  0  0  0  0  0  0
    4.7635   48.5874   29.0993 C   0  0  2  0  0  0  0  0  0  0  0  0
    4.1372   48.9203   30.4629 C   0  0  0  0  0  0  0  0  0  0  0  0
    4.2551   47.3231   28.4037 C   0  0  0  0  0  0  0  0  0  0  0  0
    3.2093   46.5469   28.9746 C   0  0  0  0  0  0  0  0  0  0  0  0
    4.8468   46.8817   27.1687 C   0  0  0  0  0  0  0  0  0  0  0  0
    2.8297   45.3707   28.3426 C   0  0  0  0  0  0  0  0  0  0  0  0
    4.4265   45.6664   26.5830 C   0  0  0  0  0  0  0  0  0  0  0  0
    5.8751   47.6370   26.5055 N   0  0  0  0  0  0  0  0  0  0  0  0
    1.8589   44.4656   28.7268 O   0  0  0  0  0  0  0  0  0  0  0  0
    3.4154   44.9467   27.2012 C   0  0  0  0  0  0  0  0  0  0  0  0
    6.8696   46.9812   25.8171 O   0  0  0  0  0  0  0  0  0  0  0  0
    5.7713   48.8739   26.3774 O   0  0  0  0  0  0  0  0  0  0  0  0
    1.8358   43.4052   27.7617 C   0  0  0  0  0  0  0  0  0  0  0  0
    2.8453   43.7523   26.8044 O   0  0  0  0  0  0  0  0  0  0  0  0
    8.8117   40.1832   34.2124 O   0  0  0  0  0  0  0  0  0  0  0  0
   11.2411   40.7939   33.3709 O   0  0  0  0  0  0  0  0  0  0  0  0
   10.9179   40.6920   31.9985 C   0  0  0  0  0  0  0  0  0  0  0  0
   11.5175   39.3837   31.4422 C   0  0  0  0  0  0  0  0  0  0  0  0
   12.7508   39.0887   32.0751 O   0  0  0  0  0  0  0  0  0  0  0  0
   10.6028   38.1915   31.6658 C   0  0  0  0  0  0  0  0  0  0  0  0
   12.9384   37.6818   32.0277 C   0  0  0  0  0  0  0  0  0  0  0  0
    9.6371   38.0805   30.6470 O   0  0  0  0  0  0  0  0  0  0  0  0
   11.5780   37.0215   31.6934 C   0  0  0  0  0  0  0  0  0  0  0  0
   13.4844   37.2119   33.3241 N   0  0  0  0  0  0  0  0  0  0  0  0
   11.6095   36.3201   30.4678 O   0  0  0  0  0  0  0  0  0  0  0  0
   14.4797   36.3318   33.5730 C   0  0  0  0  0  0  0  0  0  0  0  0
   13.1135   37.6278   34.5691 C   0  0  0  0  0  0  0  0  0  0  0  0
   15.2073   35.6155   32.6742 N   0  0  0  0  0  0  0  0  0  0  0  0
   14.6754   36.2305   34.9184 C   0  0  0  0  0  0  0  0  0  0  0  0
   13.8213   37.0452   35.5785 N   0  0  0  0  0  0  0  0  0  0  0  0
   16.1640   34.7604   33.1549 C   0  0  0  0  0  0  0  0  0  0  0  0
   15.6524   35.3507   35.4132 C   0  0  0  0  0  0  0  0  0  0  0  0
   16.3794   34.6318   34.5044 N   0  0  0  0  0  0  0  0  0  0  0  0
   15.8999   35.1934   36.8091 N   0  0  0  0  0  0  0  0  0  0  0  0
    9.0099   45.4348   33.6670 H   0  0  0  0  0  0  0  0  0  0  0  0
   11.1132   46.1992   34.4885 H   0  0  0  0  0  0  0  0  0  0  0  0
   11.9350   45.6933   33.0930 H   0  0  0  0  0  0  0  0  0  0  0  0
   10.7311   44.8930   31.1677 H   0  0  0  0  0  0  0  0  0  0  0  0
    9.3519   43.8345   31.4759 H   0  0  0  0  0  0  0  0  0  0  0  0
    7.0136   44.7147   31.5817 H   0  0  0  0  0  0  0  0  0  0  0  0
   10.3465   47.1891   30.4146 H   0  0  0  0  0  0  0  0  0  0  0  0
    5.4739   46.2730   30.5161 H   0  0  0  0  0  0  0  0  0  0  0  0
    8.7946   48.7674   29.3418 H   0  0  0  0  0  0  0  0  0  0  0  0
    4.4824   49.4372   28.4422 H   0  0  0  0  0  0  0  0  0  0  0  0
    3.0484   49.1099   30.3507 H   0  0  0  0  0  0  0  0  0  0  0  0
    4.6008   49.8455   30.8663 H   0  0  0  0  0  0  0  0  0  0  0  0
    4.2942   48.1084   31.2003 H   0  0  0  0  0  0  0  0  0  0  0  0
    2.7107   46.8231   29.8920 H   0  0  0  0  0  0  0  0  0  0  0  0
    4.8615   45.3050   25.6601 H   0  0  0  0  0  0  0  0  0  0  0  0
    2.0845   42.4383   28.2474 H   0  0  0  0  0  0  0  0  0  0  0  0
    0.8419   43.3553   27.2696 H   0  0  0  0  0  0  0  0  0  0  0  0
    9.8292   40.7410   31.7624 H   0  0  0  0  0  0  0  0  0  0  0  0
   11.3955   41.5477   31.4751 H   0  0  0  0  0  0  0  0  0  0  0  0
   11.6981   39.5116   30.3500 H   0  0  0  0  0  0  0  0  0  0  0  0
   10.1117   38.2603   32.6660 H   0  0  0  0  0  0  0  0  0  0  0  0
   13.6767   37.4555   31.2267 H   0  0  0  0  0  0  0  0  0  0  0  0
    8.8961   38.6952   30.8871 H   0  0  0  0  0  0  0  0  0  0  0  0
   11.2791   36.3072   32.4922 H   0  0  0  0  0  0  0  0  0  0  0  0
   11.8828   36.9598   29.7588 H   0  0  0  0  0  0  0  0  0  0  0  0
   12.3300   38.3539   34.7446 H   0  0  0  0  0  0  0  0  0  0  0  0
   16.7561   34.1785   32.4622 H   0  0  0  0  0  0  0  0  0  0  0  0
   16.6347   34.5303   37.1416 H   0  0  0  0  0  0  0  0  0  0  0  0
   15.3531   35.7360   37.5140 H   0  0  0  0  0  0  0  0  0  0  0  0
  1  2  2  0
  1  3  1  0
  3  4  1  0
  4  5  1  0
  6  1  1  0
  7  6  1  0
  6  8  1  0
  8  9  1  0
  9 10  2  0
 11  9  1  0
 10 12  1  0
 13 11  2  0
 12 14  2  0
 14 13  1  0
 14 15  1  0
 15 16  1  0
 16 17  1  0
 16 18  1  0
 18 19  2  0
 20 18  1  0
 19 21  1  0
 22 20  2  0
 20 23  1  0
 21 24  1  0
 21 25  2  0
 25 22  1  0
 23 26  1  0
 23 27  2  0
 24 28  1  0
 25 29  1  0
 28 29  1  0
  4 30  2  0
  4 31  1  0
 32 31  1  0
 32 33  1  0
 33 34  1  0
 33 35  1  0
 34 36  1  0
 35 37  1  0
 35 38  1  0
 38 36  1  0
 36 39  1  0
 38 40  1  0
 41 39  1  0
 42 39  1  0
 43 41  2  0
 41 44  1  0
 45 42  2  0
 46 43  1  0
 44 47  2  0
 44 45  1  0
 48 46  2  0
 48 47  1  0
 47 49  1  0
  6 50  1  1
  7 51  1  0
  7 52  1  0
  8 53  1  0
  8 54  1  0
 10 55  1  0
 11 56  1  0
 12 57  1  0
 13 58  1  0
 16 59  1  6
 17 60  1  0
 17 61  1  0
 17 62  1  0
 19 63  1  0
 22 64  1  0
 28 65  1  0
 28 66  1  0
 32 67  1  0
 32 68  1  0
 33 69  1  0
 35 70  1  0
 36 71  1  0
 37 72  1  0
 38 73  1  0
 40 74  1  0
 42 75  1  0
 46 76  1  0
 49 77  1  0
 49 78  1  0
M  CHG  3   5  -1  23   1  26  -1
M  END
>  <EmbedRMS>  (277) 
0.0828518493099

$$$$

     RDKit          3D

 78 83  0  0  0  0  0  0  0  0999 V2000
   10.2843   43.7657   33.8254 C   0  0  0  0  0  0  0  0  0  0  0  0
   11.4114   43.5924   34.3746 O   0  0  0  0  0  0  0  0  0  0  0  0
    9.3642   42.7251   33.7349 O   0  0  0  0  0  0  0  0  0  0  0  0
    9.8894   41.2260   34.2953 P   0  0  0  0  0  0  0  0  0  0  0  0
   10.3727   41.4551   35.8847 O   0  0  0  0  0  0  0  0  0  0  0  0
    9.9552   45.0696   33.2039 C   0  0  1  0  0  0  0  0  0  0  0  0
   11.0272   46.0319   33.4791 N   0  0  0  0  0  0  0  0  0  0  0  0
    9.7513   44.8526   31.6872 C   0  0  0  0  0  0  0  0  0  0  0  0
    8.7944   45.8426   31.0823 C   0  0  0  0  0  0  0  0  0  0  0  0
    7.4083   45.5991   31.0974 C   0  0  0  0  0  0  0  0  0  0  0  0
    9.2808   46.9883   30.4342 C   0  0  0  0  0  0  0  0  0  0  0  0
    6.5252   46.5000   30.4884 C   0  0  0  0  0  0  0  0  0  0  0  0
    8.3966   47.8872   29.8245 C   0  0  0  0  0  0  0  0  0  0  0  0
    7.0148   47.6575   29.8592 C   0  0  0  0  0  0  0  0  0  0  0  0
    6.1539   48.5848   29.2545 O   0  0  0  0  0  0  0  0  0  0  0  0
    5.1588   49.3412   29.9622 C   0  0  2  0  0  0  0  0  0  0  0  0
    5.8247   50.1634   31.0817 C   0  0  0  0  0  0  0  0  0  0  0  0
    3.9839   48.4595   30.3948 C   0  0  0  0  0  0  0  0  0  0  0  0
    3.6314   48.3413   31.7691 C   0  0  0  0  0  0  0  0  0  0  0  0
    3.2387   47.6980   29.4226 C   0  0  0  0  0  0  0  0  0  0  0  0
    2.5916   47.4916   32.1221 C   0  0  0  0  0  0  0  0  0  0  0  0
    2.1963   46.8424   29.8506 C   0  0  0  0  0  0  0  0  0  0  0  0
    3.5412   47.7465   28.0149 N   0  0  0  0  0  0  0  0  0  0  0  0
    2.0922   47.2284   33.3833 O   0  0  0  0  0  0  0  0  0  0  0  0
    1.9033   46.7757   31.2054 C   0  0  0  0  0  0  0  0  0  0  0  0
    3.3732   46.6225   27.2381 O   0  0  0  0  0  0  0  0  0  0  0  0
    3.7728   48.8320   27.4460 O   0  0  0  0  0  0  0  0  0  0  0  0
    1.0126   46.2939   33.2470 C   0  0  0  0  0  0  0  0  0  0  0  0
    0.9286   46.0269   31.8395 O   0  0  0  0  0  0  0  0  0  0  0  0
    8.8111   40.1840   34.2166 O   0  0  0  0  0  0  0  0  0  0  0  0
   11.2391   40.7935   33.3693 O   0  0  0  0  0  0  0  0  0  0  0  0
   10.9136   40.6912   31.9973 C   0  0  0  0  0  0  0  0  0  0  0  0
   11.5279   39.3914   31.4382 C   0  0  0  0  0  0  0  0  0  0  0  0
   12.7530   39.0916   32.0833 O   0  0  0  0  0  0  0  0  0  0  0  0
   10.6125   38.1933   31.6452 C   0  0  0  0  0  0  0  0  0  0  0  0
   12.9428   37.6841   32.0283 C   0  0  0  0  0  0  0  0  0  0  0  0
    9.6073   38.0877   30.6604 O   0  0  0  0  0  0  0  0  0  0  0  0
   11.5835   37.0201   31.6868 C   0  0  0  0  0  0  0  0  0  0  0  0
   13.4852   37.2110   33.3241 N   0  0  0  0  0  0  0  0  0  0  0  0
   11.6179   36.3078   30.4681 O   0  0  0  0  0  0  0  0  0  0  0  0
   14.4810   36.3321   33.5735 C   0  0  0  0  0  0  0  0  0  0  0  0
   13.1129   37.6267   34.5682 C   0  0  0  0  0  0  0  0  0  0  0  0
   15.2069   35.6141   32.6753 N   0  0  0  0  0  0  0  0  0  0  0  0
   14.6757   36.2310   34.9189 C   0  0  0  0  0  0  0  0  0  0  0  0
   13.8201   37.0447   35.5782 N   0  0  0  0  0  0  0  0  0  0  0  0
   16.1631   34.7592   33.1566 C   0  0  0  0  0  0  0  0  0  0  0  0
   15.6516   35.3507   35.4145 C   0  0  0  0  0  0  0  0  0  0  0  0
   16.3786   34.6310   34.5062 N   0  0  0  0  0  0  0  0  0  0  0  0
   15.8975   35.1939   36.8109 N   0  0  0  0  0  0  0  0  0  0  0  0
    9.0100   45.4308   33.6680 H   0  0  0  0  0  0  0  0  0  0  0  0
   11.8936   45.7656   32.9545 H   0  0  0  0  0  0  0  0  0  0  0  0
   10.7234   46.9674   33.1245 H   0  0  0  0  0  0  0  0  0  0  0  0
   10.7286   44.8898   31.1590 H   0  0  0  0  0  0  0  0  0  0  0  0
    9.3543   43.8369   31.4709 H   0  0  0  0  0  0  0  0  0  0  0  0
    7.0153   44.7095   31.5738 H   0  0  0  0  0  0  0  0  0  0  0  0
   10.3443   47.1868   30.4001 H   0  0  0  0  0  0  0  0  0  0  0  0
    5.4695   46.2764   30.4972 H   0  0  0  0  0  0  0  0  0  0  0  0
    8.7836   48.7730   29.3364 H   0  0  0  0  0  0  0  0  0  0  0  0
    4.7529   50.0974   29.2612 H   0  0  0  0  0  0  0  0  0  0  0  0
    6.6331   50.7956   30.6499 H   0  0  0  0  0  0  0  0  0  0  0  0
    6.2817   49.4966   31.8473 H   0  0  0  0  0  0  0  0  0  0  0  0
    5.0791   50.8336   31.5623 H   0  0  0  0  0  0  0  0  0  0  0  0
    4.1463   48.8747   32.5566 H   0  0  0  0  0  0  0  0  0  0  0  0
    1.6199   46.2578   29.1441 H   0  0  0  0  0  0  0  0  0  0  0  0
    1.2416   45.3618   33.8015 H   0  0  0  0  0  0  0  0  0  0  0  0
    0.0625   46.7465   33.6110 H   0  0  0  0  0  0  0  0  0  0  0  0
    9.8213   40.7165   31.7653 H   0  0  0  0  0  0  0  0  0  0  0  0
   11.3784   41.5547   31.4732 H   0  0  0  0  0  0  0  0  0  0  0  0
   11.7336   39.5357   30.3531 H   0  0  0  0  0  0  0  0  0  0  0  0
   10.1214   38.2694   32.6414 H   0  0  0  0  0  0  0  0  0  0  0  0
   13.6864   37.4629   31.2305 H   0  0  0  0  0  0  0  0  0  0  0  0
   10.0257   38.1772   29.7657 H   0  0  0  0  0  0  0  0  0  0  0  0
   11.2779   36.3133   32.4893 H   0  0  0  0  0  0  0  0  0  0  0  0
   11.9809   36.9124   29.7692 H   0  0  0  0  0  0  0  0  0  0  0  0
   12.3301   38.3540   34.7417 H   0  0  0  0  0  0  0  0  0  0  0  0
   16.7548   34.1779   32.4638 H   0  0  0  0  0  0  0  0  0  0  0  0
   15.3486   35.7370   37.5141 H   0  0  0  0  0  0  0  0  0  0  0  0
   16.6320   34.5311   37.1448 H   0  0  0  0  0  0  0  0  0  0  0  0
  1  2  2  0
  1  3  1  0
  3  4  1  0
  4  5  1  0
  6  1  1  0
  7  6  1  0
  6  8  1  0
  8  9  1  0
  9 10  2  0
 11  9  1  0
 10 12  1  0
 13 11  2  0
 12 14  2  0
 14 13  1  0
 14 15  1  0
 15 16  1  0
 16 17  1  0
 16 18  1  0
 18 19  2  0
 20 18  1  0
 19 21  1  0
 22 20  2  0
 20 23  1  0
 21 24  1  0
 21 25  2  0
 25 22  1  0
 23 26  1  0
 23 27  2  0
 24 28  1  0
 25 29  1  0
 28 29  1  0
  4 30  2  0
  4 31  1  0
 32 31  1  0
 32 33  1  0
 33 34  1  0
 33 35  1  0
 34 36  1  0
 35 37  1  0
 35 38  1  0
 38 36  1  0
 36 39  1  0
 38 40  1  0
 41 39  1  0
 42 39  1  0
 43 41  2  0
 41 44  1  0
 45 42  2  0
 46 43  1  0
 44 47  2  0
 44 45  1  0
 48 46  2  0
 48 47  1  0
 47 49  1  0
  6 50  1  1
  7 51  1  0
  7 52  1  0
  8 53  1  0
  8 54  1  0
 10 55  1  0
 11 56  1  0
 12 57  1  0
 13 58  1  0
 16 59  1  6
 17 60  1  0
 17 61  1  0
 17 62  1  0
 19 63  1  0
 22 64  1  0
 28 65  1  0
 28 66  1  0
 32 67  1  0
 32 68  1  0
 33 69  1  0
 35 70  1  0
 36 71  1  0
 37 72  1  0
 38 73  1  0
 40 74  1  0
 42 75  1  0
 46 76  1  0
 49 77  1  0
 49 78  1  0
M  CHG  3   5  -1  23   1  26  -1
M  END
>  <EmbedRMS>  (278) 
0.0811258290095

$$$$

     RDKit          3D

 78 83  0  0  0  0  0  0  0  0999 V2000
   10.2839   43.7626   33.8276 C   0  0  0  0  0  0  0  0  0  0  0  0
   11.4103   43.5863   34.3767 O   0  0  0  0  0  0  0  0  0  0  0  0
    9.3630   42.7236   33.7354 O   0  0  0  0  0  0  0  0  0  0  0  0
    9.8893   41.2249   34.2944 P   0  0  0  0  0  0  0  0  0  0  0  0
   10.3727   41.4546   35.8838 O   0  0  0  0  0  0  0  0  0  0  0  0
    9.9549   45.0700   33.2063 C   0  0  1  0  0  0  0  0  0  0  0  0
   11.0199   46.0481   33.4570 N   0  0  0  0  0  0  0  0  0  0  0  0
    9.7507   44.8510   31.6922 C   0  0  0  0  0  0  0  0  0  0  0  0
    8.7945   45.8417   31.0867 C   0  0  0  0  0  0  0  0  0  0  0  0
    7.4078   45.6007   31.1005 C   0  0  0  0  0  0  0  0  0  0  0  0
    9.2827   46.9892   30.4449 C   0  0  0  0  0  0  0  0  0  0  0  0
    6.5254   46.5001   30.4859 C   0  0  0  0  0  0  0  0  0  0  0  0
    8.4009   47.8882   29.8340 C   0  0  0  0  0  0  0  0  0  0  0  0
    7.0191   47.6552   29.8440 C   0  0  0  0  0  0  0  0  0  0  0  0
    6.1870   48.5963   29.2145 O   0  0  0  0  0  0  0  0  0  0  0  0
    4.7707   48.4838   29.0351 C   0  0  2  0  0  0  0  0  0  0  0  0
    4.4648   47.4683   27.9284 C   0  0  0  0  0  0  0  0  0  0  0  0
    4.1722   49.8346   28.6689 C   0  0  0  0  0  0  0  0  0  0  0  0
    5.0072   50.8419   28.1175 C   0  0  0  0  0  0  0  0  0  0  0  0
    2.7606   50.0841   28.7733 C   0  0  0  0  0  0  0  0  0  0  0  0
    4.4290   52.0359   27.7072 C   0  0  0  0  0  0  0  0  0  0  0  0
    2.2293   51.3133   28.3238 C   0  0  0  0  0  0  0  0  0  0  0  0
    1.8545   49.1050   29.3033 N   0  0  0  0  0  0  0  0  0  0  0  0
    5.0444   53.1405   27.1502 O   0  0  0  0  0  0  0  0  0  0  0  0
    3.0995   52.2612   27.8048 C   0  0  0  0  0  0  0  0  0  0  0  0
    0.6358   48.9104   28.6955 O   0  0  0  0  0  0  0  0  0  0  0  0
    2.0415   48.6264   30.4402 O   0  0  0  0  0  0  0  0  0  0  0  0
    4.0341   54.1230   26.8844 C   0  0  0  0  0  0  0  0  0  0  0  0
    2.8068   53.5203   27.3170 O   0  0  0  0  0  0  0  0  0  0  0  0
    8.8113   40.1834   34.2130 O   0  0  0  0  0  0  0  0  0  0  0  0
   11.2399   40.7932   33.3693 O   0  0  0  0  0  0  0  0  0  0  0  0
   10.9143   40.6896   31.9973 C   0  0  0  0  0  0  0  0  0  0  0  0
   11.5261   39.3884   31.4375 C   0  0  0  0  0  0  0  0  0  0  0  0
   12.7505   39.0887   32.0815 O   0  0  0  0  0  0  0  0  0  0  0  0
   10.6115   38.1909   31.6460 C   0  0  0  0  0  0  0  0  0  0  0  0
   12.9357   37.6812   32.0303 C   0  0  0  0  0  0  0  0  0  0  0  0
    9.6145   38.0858   30.6533 O   0  0  0  0  0  0  0  0  0  0  0  0
   11.5769   37.0148   31.7012 C   0  0  0  0  0  0  0  0  0  0  0  0
   13.4849   37.2112   33.3247 N   0  0  0  0  0  0  0  0  0  0  0  0
   11.6193   36.3260   30.4724 O   0  0  0  0  0  0  0  0  0  0  0  0
   14.4802   36.3314   33.5730 C   0  0  0  0  0  0  0  0  0  0  0  0
   13.1141   37.6268   34.5697 C   0  0  0  0  0  0  0  0  0  0  0  0
   15.2075   35.6151   32.6740 N   0  0  0  0  0  0  0  0  0  0  0  0
   14.6761   36.2301   34.9184 C   0  0  0  0  0  0  0  0  0  0  0  0
   13.8220   37.0445   35.5788 N   0  0  0  0  0  0  0  0  0  0  0  0
   16.1642   34.7600   33.1547 C   0  0  0  0  0  0  0  0  0  0  0  0
   15.6529   35.3503   35.4131 C   0  0  0  0  0  0  0  0  0  0  0  0
   16.3798   34.6314   34.5042 N   0  0  0  0  0  0  0  0  0  0  0  0
   15.9004   35.1930   36.8090 N   0  0  0  0  0  0  0  0  0  0  0  0
    9.0099   45.4349   33.6668 H   0  0  0  0  0  0  0  0  0  0  0  0
   11.9350   45.6932   33.0929 H   0  0  0  0  0  0  0  0  0  0  0  0
   11.1132   46.1993   34.4884 H   0  0  0  0  0  0  0  0  0  0  0  0
   10.7310   44.8930   31.1675 H   0  0  0  0  0  0  0  0  0  0  0  0
    9.3519   43.8344   31.4758 H   0  0  0  0  0  0  0  0  0  0  0  0
    7.0129   44.7156   31.5842 H   0  0  0  0  0  0  0  0  0  0  0  0
   10.3466   47.1897   30.4158 H   0  0  0  0  0  0  0  0  0  0  0  0
    5.4680   46.2826   30.5215 H   0  0  0  0  0  0  0  0  0  0  0  0
    8.7941   48.7708   29.3454 H   0  0  0  0  0  0  0  0  0  0  0  0
    4.3309   48.1489   29.9929 H   0  0  0  0  0  0  0  0  0  0  0  0
    4.9011   47.8092   26.9651 H   0  0  0  0  0  0  0  0  0  0  0  0
    3.3685   47.3451   27.8039 H   0  0  0  0  0  0  0  0  0  0  0  0
    4.8951   46.4767   28.1757 H   0  0  0  0  0  0  0  0  0  0  0  0
    6.0719   50.7005   27.9879 H   0  0  0  0  0  0  0  0  0  0  0  0
    1.1698   51.5254   28.3884 H   0  0  0  0  0  0  0  0  0  0  0  0
    4.2337   55.0466   27.4672 H   0  0  0  0  0  0  0  0  0  0  0  0
    3.9900   54.3443   25.7974 H   0  0  0  0  0  0  0  0  0  0  0  0
    9.8234   40.7192   31.7644 H   0  0  0  0  0  0  0  0  0  0  0  0
   11.3782   41.5525   31.4733 H   0  0  0  0  0  0  0  0  0  0  0  0
   11.7282   39.5312   30.3515 H   0  0  0  0  0  0  0  0  0  0  0  0
   10.1127   38.2733   32.6376 H   0  0  0  0  0  0  0  0  0  0  0  0
   13.6692   37.4565   31.2242 H   0  0  0  0  0  0  0  0  0  0  0  0
   10.0533   38.1118   29.7635 H   0  0  0  0  0  0  0  0  0  0  0  0
   11.2607   36.3147   32.5101 H   0  0  0  0  0  0  0  0  0  0  0  0
   12.1496   35.5023   30.6323 H   0  0  0  0  0  0  0  0  0  0  0  0
   12.3300   38.3523   34.7455 H   0  0  0  0  0  0  0  0  0  0  0  0
   16.7563   34.1781   32.4619 H   0  0  0  0  0  0  0  0  0  0  0  0
   16.6351   34.5299   37.1415 H   0  0  0  0  0  0  0  0  0  0  0  0
   15.3536   35.7357   37.5139 H   0  0  0  0  0  0  0  0  0  0  0  0
  1  2  2  0
  1  3  1  0
  3  4  1  0
  4  5  1  0
  6  1  1  0
  7  6  1  0
  6  8  1  0
  8  9  1  0
  9 10  2  0
 11  9  1  0
 10 12  1  0
 13 11  2  0
 12 14  2  0
 14 13  1  0
 14 15  1  0
 15 16  1  0
 16 17  1  0
 16 18  1  0
 18 19  2  0
 20 18  1  0
 19 21  1  0
 22 20  2  0
 20 23  1  0
 21 24  1  0
 21 25  2  0
 25 22  1  0
 23 26  1  0
 23 27  2  0
 24 28  1  0
 25 29  1  0
 28 29  1  0
  4 30  2  0
  4 31  1  0
 32 31  1  0
 32 33  1  0
 33 34  1  0
 33 35  1  0
 34 36  1  0
 35 37  1  0
 35 38  1  0
 38 36  1  0
 36 39  1  0
 38 40  1  0
 41 39  1  0
 42 39  1  0
 43 41  2  0
 41 44  1  0
 45 42  2  0
 46 43  1  0
 44 47  2  0
 44 45  1  0
 48 46  2  0
 48 47  1  0
 47 49  1  0
  6 50  1  1
  7 51  1  0
  7 52  1  0
  8 53  1  0
  8 54  1  0
 10 55  1  0
 11 56  1  0
 12 57  1  0
 13 58  1  0
 16 59  1  1
 17 60  1  0
 17 61  1  0
 17 62  1  0
 19 63  1  0
 22 64  1  0
 28 65  1  0
 28 66  1  0
 32 67  1  0
 32 68  1  0
 33 69  1  0
 35 70  1  0
 36 71  1  0
 37 72  1  0
 38 73  1  0
 40 74  1  0
 42 75  1  0
 46 76  1  0
 49 77  1  0
 49 78  1  0
M  CHG  3   5  -1  23   1  26  -1
M  END
>  <EmbedRMS>  (279) 
0.0825084949885

$$$$

     RDKit          3D

 78 83  0  0  0  0  0  0  0  0999 V2000
   10.2838   43.7626   33.8276 C   0  0  0  0  0  0  0  0  0  0  0  0
   11.4103   43.5863   34.3766 O   0  0  0  0  0  0  0  0  0  0  0  0
    9.3630   42.7236   33.7354 O   0  0  0  0  0  0  0  0  0  0  0  0
    9.8897   41.2248   34.2935 P   0  0  0  0  0  0  0  0  0  0  0  0
   10.3735   41.4542   35.8829 O   0  0  0  0  0  0  0  0  0  0  0  0
    9.9548   45.0699   33.2064 C   0  0  1  0  0  0  0  0  0  0  0  0
   11.0198   46.0480   33.4568 N   0  0  0  0  0  0  0  0  0  0  0  0
    9.7501   44.8508   31.6923 C   0  0  0  0  0  0  0  0  0  0  0  0
    8.7942   45.8418   31.0869 C   0  0  0  0  0  0  0  0  0  0  0  0
    7.4074   45.6012   31.1003 C   0  0  0  0  0  0  0  0  0  0  0  0
    9.2832   46.9891   30.4450 C   0  0  0  0  0  0  0  0  0  0  0  0
    6.5280   46.5022   30.4844 C   0  0  0  0  0  0  0  0  0  0  0  0
    8.4035   47.8900   29.8331 C   0  0  0  0  0  0  0  0  0  0  0  0
    7.0148   47.6513   29.8465 C   0  0  0  0  0  0  0  0  0  0  0  0
    6.0896   48.5178   29.2419 O   0  0  0  0  0  0  0  0  0  0  0  0
    6.4184   49.7014   28.5084 C   0  0  2  0  0  0  0  0  0  0  0  0
    5.1320   50.4700   28.2160 C   0  0  0  0  0  0  0  0  0  0  0  0
    7.1156   49.3593   27.2012 C   0  0  0  0  0  0  0  0  0  0  0  0
    6.6816   48.2214   26.4761 C   0  0  0  0  0  0  0  0  0  0  0  0
    8.1237   50.2067   26.6328 C   0  0  0  0  0  0  0  0  0  0  0  0
    7.2643   47.9570   25.2437 C   0  0  0  0  0  0  0  0  0  0  0  0
    8.6684   49.8965   25.3673 C   0  0  0  0  0  0  0  0  0  0  0  0
    8.5826   51.3888   27.3021 N   0  0  0  0  0  0  0  0  0  0  0  0
    7.0042   46.9130   24.3770 O   0  0  0  0  0  0  0  0  0  0  0  0
    8.2151   48.7593   24.7124 C   0  0  0  0  0  0  0  0  0  0  0  0
    8.7269   52.5558   26.5883 O   0  0  0  0  0  0  0  0  0  0  0  0
    9.1192   51.3009   28.4252 O   0  0  0  0  0  0  0  0  0  0  0  0
    7.8495   47.0700   23.2291 C   0  0  0  0  0  0  0  0  0  0  0  0
    8.6056   48.2617   23.4841 O   0  0  0  0  0  0  0  0  0  0  0  0
    8.8114   40.1834   34.2126 O   0  0  0  0  0  0  0  0  0  0  0  0
   11.2398   40.7937   33.3671 O   0  0  0  0  0  0  0  0  0  0  0  0
   10.9125   40.6857   31.9955 C   0  0  0  0  0  0  0  0  0  0  0  0
   11.5175   39.3786   31.4405 C   0  0  0  0  0  0  0  0  0  0  0  0
   12.7490   39.0863   32.0751 O   0  0  0  0  0  0  0  0  0  0  0  0
   10.6061   38.1867   31.6656 C   0  0  0  0  0  0  0  0  0  0  0  0
   12.9356   37.6796   32.0292 C   0  0  0  0  0  0  0  0  0  0  0  0
    9.6399   38.0902   30.6471 O   0  0  0  0  0  0  0  0  0  0  0  0
   11.5765   37.0145   31.7043 C   0  0  0  0  0  0  0  0  0  0  0  0
   13.4858   37.2125   33.3243 N   0  0  0  0  0  0  0  0  0  0  0  0
   11.6101   36.3396   30.4673 O   0  0  0  0  0  0  0  0  0  0  0  0
   14.4805   36.3319   33.5729 C   0  0  0  0  0  0  0  0  0  0  0  0
   13.1143   37.6276   34.5694 C   0  0  0  0  0  0  0  0  0  0  0  0
   15.2076   35.6153   32.6741 N   0  0  0  0  0  0  0  0  0  0  0  0
   14.6760   36.2304   34.9184 C   0  0  0  0  0  0  0  0  0  0  0  0
   13.8219   37.0449   35.5786 N   0  0  0  0  0  0  0  0  0  0  0  0
   16.1641   34.7600   33.1548 C   0  0  0  0  0  0  0  0  0  0  0  0
   15.6527   35.3505   35.4132 C   0  0  0  0  0  0  0  0  0  0  0  0
   16.3795   34.6314   34.5043 N   0  0  0  0  0  0  0  0  0  0  0  0
   15.9002   35.1931   36.8091 N   0  0  0  0  0  0  0  0  0  0  0  0
    9.0099   45.4349   33.6671 H   0  0  0  0  0  0  0  0  0  0  0  0
   11.9348   45.6932   33.0923 H   0  0  0  0  0  0  0  0  0  0  0  0
   11.1135   46.1992   34.4881 H   0  0  0  0  0  0  0  0  0  0  0  0
    9.3508   43.8343   31.4762 H   0  0  0  0  0  0  0  0  0  0  0  0
   10.7303   44.8922   31.1674 H   0  0  0  0  0  0  0  0  0  0  0  0
    7.0107   44.7161   31.5822 H   0  0  0  0  0  0  0  0  0  0  0  0
   10.3475   47.1882   30.4163 H   0  0  0  0  0  0  0  0  0  0  0  0
    5.4637   46.3044   30.5006 H   0  0  0  0  0  0  0  0  0  0  0  0
    8.8159   48.7638   29.3514 H   0  0  0  0  0  0  0  0  0  0  0  0
    7.0421   50.3475   29.1559 H   0  0  0  0  0  0  0  0  0  0  0  0
    4.4388   49.8528   27.6049 H   0  0  0  0  0  0  0  0  0  0  0  0
    4.6263   50.7328   29.1694 H   0  0  0  0  0  0  0  0  0  0  0  0
    5.3615   51.4094   27.6685 H   0  0  0  0  0  0  0  0  0  0  0  0
    5.9044   47.5696   26.8541 H   0  0  0  0  0  0  0  0  0  0  0  0
    9.4286   50.5201   24.9145 H   0  0  0  0  0  0  0  0  0  0  0  0
    7.2343   47.1952   22.3135 H   0  0  0  0  0  0  0  0  0  0  0  0
    8.5298   46.1982   23.1310 H   0  0  0  0  0  0  0  0  0  0  0  0
    9.8216   40.7200   31.7633 H   0  0  0  0  0  0  0  0  0  0  0  0
   11.3807   41.5436   31.4670 H   0  0  0  0  0  0  0  0  0  0  0  0
   11.6998   39.5042   30.3481 H   0  0  0  0  0  0  0  0  0  0  0  0
   10.1085   38.2766   32.6603 H   0  0  0  0  0  0  0  0  0  0  0  0
   13.6680   37.4519   31.2229 H   0  0  0  0  0  0  0  0  0  0  0  0
    9.0016   37.3867   30.9349 H   0  0  0  0  0  0  0  0  0  0  0  0
   11.2667   36.3061   32.5083 H   0  0  0  0  0  0  0  0  0  0  0  0
   12.1389   35.5126   30.6150 H   0  0  0  0  0  0  0  0  0  0  0  0
   12.3300   38.3529   34.7449 H   0  0  0  0  0  0  0  0  0  0  0  0
   16.7560   34.1779   32.4621 H   0  0  0  0  0  0  0  0  0  0  0  0
   16.6347   34.5298   37.1416 H   0  0  0  0  0  0  0  0  0  0  0  0
   15.3534   35.7359   37.5140 H   0  0  0  0  0  0  0  0  0  0  0  0
  1  2  2  0
  1  3  1  0
  3  4  1  0
  4  5  1  0
  6  1  1  0
  7  6  1  0
  6  8  1  0
  8  9  1  0
  9 10  2  0
 11  9  1  0
 10 12  1  0
 13 11  2  0
 12 14  2  0
 14 13  1  0
 14 15  1  0
 15 16  1  0
 16 17  1  0
 16 18  1  0
 18 19  2  0
 20 18  1  0
 19 21  1  0
 22 20  2  0
 20 23  1  0
 21 24  1  0
 21 25  2  0
 25 22  1  0
 23 26  1  0
 23 27  2  0
 24 28  1  0
 25 29  1  0
 28 29  1  0
  4 30  2  0
  4 31  1  0
 32 31  1  0
 32 33  1  0
 33 34  1  0
 33 35  1  0
 34 36  1  0
 35 37  1  0
 35 38  1  0
 38 36  1  0
 36 39  1  0
 38 40  1  0
 41 39  1  0
 42 39  1  0
 43 41  2  0
 41 44  1  0
 45 42  2  0
 46 43  1  0
 44 47  2  0
 44 45  1  0
 48 46  2  0
 48 47  1  0
 47 49  1  0
  6 50  1  1
  7 51  1  0
  7 52  1  0
  8 53  1  0
  8 54  1  0
 10 55  1  0
 11 56  1  0
 12 57  1  0
 13 58  1  0
 16 59  1  1
 17 60  1  0
 17 61  1  0
 17 62  1  0
 19 63  1  0
 22 64  1  0
 28 65  1  0
 28 66  1  0
 32 67  1  0
 32 68  1  0
 33 69  1  0
 35 70  1  0
 36 71  1  0
 37 72  1  0
 38 73  1  0
 40 74  1  0
 42 75  1  0
 46 76  1  0
 49 77  1  0
 49 78  1  0
M  CHG  3   5  -1  23   1  26  -1
M  END
>  <EmbedRMS>  (280) 
0.0832975580494

$$$$

     RDKit          3D

 78 83  0  0  0  0  0  0  0  0999 V2000
   10.2803   43.7665   33.8246 C   0  0  0  0  0  0  0  0  0  0  0  0
   11.4109   43.5920   34.3665 O   0  0  0  0  0  0  0  0  0  0  0  0
    9.3618   42.7249   33.7342 O   0  0  0  0  0  0  0  0  0  0  0  0
    9.8903   41.2265   34.2930 P   0  0  0  0  0  0  0  0  0  0  0  0
   10.3742   41.4564   35.8823 O   0  0  0  0  0  0  0  0  0  0  0  0
    9.9458   45.0737   33.2107 C   0  0  1  0  0  0  0  0  0  0  0  0
   11.0265   46.0292   33.4703 N   0  0  0  0  0  0  0  0  0  0  0  0
    9.7534   44.8541   31.6943 C   0  0  0  0  0  0  0  0  0  0  0  0
    8.7953   45.8412   31.0839 C   0  0  0  0  0  0  0  0  0  0  0  0
    7.4069   45.6010   31.1022 C   0  0  0  0  0  0  0  0  0  0  0  0
    9.2831   46.9896   30.4398 C   0  0  0  0  0  0  0  0  0  0  0  0
    6.5256   46.5024   30.4882 C   0  0  0  0  0  0  0  0  0  0  0  0
    8.4004   47.8908   29.8334 C   0  0  0  0  0  0  0  0  0  0  0  0
    7.0207   47.6447   29.8443 C   0  0  0  0  0  0  0  0  0  0  0  0
    6.1427   48.5441   29.2324 O   0  0  0  0  0  0  0  0  0  0  0  0
    5.7642   48.4666   27.8541 C   0  0  2  0  0  0  0  0  0  0  0  0
    4.8554   47.2561   27.5959 C   0  0  0  0  0  0  0  0  0  0  0  0
    6.9839   48.5218   26.9395 C   0  0  0  0  0  0  0  0  0  0  0  0
    7.7012   47.3328   26.6442 C   0  0  0  0  0  0  0  0  0  0  0  0
    7.4317   49.7617   26.3716 C   0  0  0  0  0  0  0  0  0  0  0  0
    8.7787   47.4045   25.7720 C   0  0  0  0  0  0  0  0  0  0  0  0
    8.5236   49.7681   25.4732 C   0  0  0  0  0  0  0  0  0  0  0  0
    6.8224   51.0138   26.7254 N   0  0  0  0  0  0  0  0  0  0  0  0
    9.6045   46.3834   25.3427 O   0  0  0  0  0  0  0  0  0  0  0  0
    9.1677   48.5686   25.2053 C   0  0  0  0  0  0  0  0  0  0  0  0
    6.5799   51.3142   28.0460 O   0  0  0  0  0  0  0  0  0  0  0  0
    6.7153   51.9192   25.8726 O   0  0  0  0  0  0  0  0  0  0  0  0
   10.5734   46.9451   24.4471 C   0  0  0  0  0  0  0  0  0  0  0  0
   10.2584   48.3429   24.3878 O   0  0  0  0  0  0  0  0  0  0  0  0
    8.8124   40.1844   34.2129 O   0  0  0  0  0  0  0  0  0  0  0  0
   11.2405   40.7948   33.3668 O   0  0  0  0  0  0  0  0  0  0  0  0
   10.9133   40.6866   31.9952 C   0  0  0  0  0  0  0  0  0  0  0  0
   11.5166   39.3787   31.4404 C   0  0  0  0  0  0  0  0  0  0  0  0
   12.7485   39.0849   32.0735 O   0  0  0  0  0  0  0  0  0  0  0  0
   10.6039   38.1884   31.6669 C   0  0  0  0  0  0  0  0  0  0  0  0
   12.9329   37.6776   32.0284 C   0  0  0  0  0  0  0  0  0  0  0  0
    9.6374   38.0938   30.6484 O   0  0  0  0  0  0  0  0  0  0  0  0
   11.5737   37.0141   31.7055 C   0  0  0  0  0  0  0  0  0  0  0  0
   13.4853   37.2120   33.3238 N   0  0  0  0  0  0  0  0  0  0  0  0
   11.6210   36.3379   30.4683 O   0  0  0  0  0  0  0  0  0  0  0  0
   14.4804   36.3319   33.5726 C   0  0  0  0  0  0  0  0  0  0  0  0
   13.1141   37.6275   34.5689 C   0  0  0  0  0  0  0  0  0  0  0  0
   15.2076   35.6152   32.6740 N   0  0  0  0  0  0  0  0  0  0  0  0
   14.6761   36.2306   34.9181 C   0  0  0  0  0  0  0  0  0  0  0  0
   13.8218   37.0451   35.5783 N   0  0  0  0  0  0  0  0  0  0  0  0
   16.1642   34.7600   33.1548 C   0  0  0  0  0  0  0  0  0  0  0  0
   15.6527   35.3506   35.4131 C   0  0  0  0  0  0  0  0  0  0  0  0
   16.3795   34.6315   34.5043 N   0  0  0  0  0  0  0  0  0  0  0  0
   15.9000   35.1933   36.8090 N   0  0  0  0  0  0  0  0  0  0  0  0
    8.9994   45.4382   33.6717 H   0  0  0  0  0  0  0  0  0  0  0  0
   11.0500   46.2279   34.4976 H   0  0  0  0  0  0  0  0  0  0  0  0
   10.7764   46.9368   33.0151 H   0  0  0  0  0  0  0  0  0  0  0  0
    9.3635   43.8355   31.4707 H   0  0  0  0  0  0  0  0  0  0  0  0
   10.7404   44.9076   31.1827 H   0  0  0  0  0  0  0  0  0  0  0  0
    7.0114   44.7181   31.5889 H   0  0  0  0  0  0  0  0  0  0  0  0
   10.3469   47.1898   30.4065 H   0  0  0  0  0  0  0  0  0  0  0  0
    5.4604   46.3116   30.5113 H   0  0  0  0  0  0  0  0  0  0  0  0
    8.7888   48.7753   29.3447 H   0  0  0  0  0  0  0  0  0  0  0  0
    5.1204   49.3448   27.6414 H   0  0  0  0  0  0  0  0  0  0  0  0
    5.3379   46.3053   27.8988 H   0  0  0  0  0  0  0  0  0  0  0  0
    3.9189   47.3633   28.1834 H   0  0  0  0  0  0  0  0  0  0  0  0
    4.5893   47.2010   26.5187 H   0  0  0  0  0  0  0  0  0  0  0  0
    7.4380   46.3788   27.0780 H   0  0  0  0  0  0  0  0  0  0  0  0
    8.8808   50.6870   25.0263 H   0  0  0  0  0  0  0  0  0  0  0  0
   11.5979   46.8000   24.8495 H   0  0  0  0  0  0  0  0  0  0  0  0
   10.4766   46.4875   23.4403 H   0  0  0  0  0  0  0  0  0  0  0  0
   11.3826   41.5438   31.4666 H   0  0  0  0  0  0  0  0  0  0  0  0
    9.8224   40.7224   31.7628 H   0  0  0  0  0  0  0  0  0  0  0  0
   11.6979   39.5036   30.3478 H   0  0  0  0  0  0  0  0  0  0  0  0
   10.1084   38.2787   32.6626 H   0  0  0  0  0  0  0  0  0  0  0  0
   13.6638   37.4473   31.2214 H   0  0  0  0  0  0  0  0  0  0  0  0
    8.9763   37.4191   30.9532 H   0  0  0  0  0  0  0  0  0  0  0  0
   11.2821   36.3054   32.5171 H   0  0  0  0  0  0  0  0  0  0  0  0
   10.8658   35.6935   30.4652 H   0  0  0  0  0  0  0  0  0  0  0  0
   12.3293   38.3523   34.7445 H   0  0  0  0  0  0  0  0  0  0  0  0
   16.7561   34.1778   32.4621 H   0  0  0  0  0  0  0  0  0  0  0  0
   15.3533   35.7361   37.5138 H   0  0  0  0  0  0  0  0  0  0  0  0
   16.6345   34.5300   37.1416 H   0  0  0  0  0  0  0  0  0  0  0  0
  1  2  2  0
  1  3  1  0
  3  4  1  0
  4  5  1  0
  6  1  1  0
  7  6  1  0
  6  8  1  0
  8  9  1  0
  9 10  2  0
 11  9  1  0
 10 12  1  0
 13 11  2  0
 12 14  2  0
 14 13  1  0
 14 15  1  0
 15 16  1  0
 16 17  1  0
 16 18  1  0
 18 19  2  0
 20 18  1  0
 19 21  1  0
 22 20  2  0
 20 23  1  0
 21 24  1  0
 21 25  2  0
 25 22  1  0
 23 26  1  0
 23 27  2  0
 24 28  1  0
 25 29  1  0
 28 29  1  0
  4 30  2  0
  4 31  1  0
 32 31  1  0
 32 33  1  0
 33 34  1  0
 33 35  1  0
 34 36  1  0
 35 37  1  0
 35 38  1  0
 38 36  1  0
 36 39  1  0
 38 40  1  0
 41 39  1  0
 42 39  1  0
 43 41  2  0
 41 44  1  0
 45 42  2  0
 46 43  1  0
 44 47  2  0
 44 45  1  0
 48 46  2  0
 48 47  1  0
 47 49  1  0
  6 50  1  1
  7 51  1  0
  7 52  1  0
  8 53  1  0
  8 54  1  0
 10 55  1  0
 11 56  1  0
 12 57  1  0
 13 58  1  0
 16 59  1  6
 17 60  1  0
 17 61  1  0
 17 62  1  0
 19 63  1  0
 22 64  1  0
 28 65  1  0
 28 66  1  0
 32 67  1  0
 32 68  1  0
 33 69  1  0
 35 70  1  0
 36 71  1  0
 37 72  1  0
 38 73  1  0
 40 74  1  0
 42 75  1  0
 46 76  1  0
 49 77  1  0
 49 78  1  0
M  CHG  3   5  -1  23   1  26  -1
M  END
>  <EmbedRMS>  (281) 
0.0825006415472

$$$$

     RDKit          3D

 78 83  0  0  0  0  0  0  0  0999 V2000
   10.2834   43.7624   33.8276 C   0  0  0  0  0  0  0  0  0  0  0  0
   11.4101   43.5859   34.3760 O   0  0  0  0  0  0  0  0  0  0  0  0
    9.3625   42.7235   33.7353 O   0  0  0  0  0  0  0  0  0  0  0  0
    9.8890   41.2251   34.2944 P   0  0  0  0  0  0  0  0  0  0  0  0
   10.3713   41.4553   35.8840 O   0  0  0  0  0  0  0  0  0  0  0  0
    9.9542   45.0697   33.2066 C   0  0  1  0  0  0  0  0  0  0  0  0
   11.0194   46.0476   33.4565 N   0  0  0  0  0  0  0  0  0  0  0  0
    9.7484   44.8499   31.6926 C   0  0  0  0  0  0  0  0  0  0  0  0
    8.7931   45.8411   31.0867 C   0  0  0  0  0  0  0  0  0  0  0  0
    7.4049   45.6036   31.1037 C   0  0  0  0  0  0  0  0  0  0  0  0
    9.2835   46.9886   30.4448 C   0  0  0  0  0  0  0  0  0  0  0  0
    6.5259   46.5075   30.4904 C   0  0  0  0  0  0  0  0  0  0  0  0
    8.4040   47.8885   29.8314 C   0  0  0  0  0  0  0  0  0  0  0  0
    7.0202   47.6470   29.8409 C   0  0  0  0  0  0  0  0  0  0  0  0
    6.1194   48.5255   29.2232 O   0  0  0  0  0  0  0  0  0  0  0  0
    6.0566   48.7398   27.8068 C   0  0  2  0  0  0  0  0  0  0  0  0
    5.7824   47.4058   27.0912 C   0  0  0  0  0  0  0  0  0  0  0  0
    7.2750   49.5210   27.3105 C   0  0  0  0  0  0  0  0  0  0  0  0
    8.1489   48.9680   26.3325 C   0  0  0  0  0  0  0  0  0  0  0  0
    7.5940   50.8096   27.8711 C   0  0  0  0  0  0  0  0  0  0  0  0
    9.2835   49.6816   25.9695 C   0  0  0  0  0  0  0  0  0  0  0  0
    8.7709   51.4809   27.4650 C   0  0  0  0  0  0  0  0  0  0  0  0
    6.7724   51.4289   28.8775 N   0  0  0  0  0  0  0  0  0  0  0  0
   10.2627   49.3292   25.0593 O   0  0  0  0  0  0  0  0  0  0  0  0
    9.5824   50.8830   26.5120 C   0  0  0  0  0  0  0  0  0  0  0  0
    7.3574   52.1973   29.8581 O   0  0  0  0  0  0  0  0  0  0  0  0
    5.5292   51.4484   28.7634 O   0  0  0  0  0  0  0  0  0  0  0  0
   11.2389   50.3808   25.0296 C   0  0  0  0  0  0  0  0  0  0  0  0
   10.7650   51.3540   25.9717 O   0  0  0  0  0  0  0  0  0  0  0  0
    8.8116   40.1830   34.2123 O   0  0  0  0  0  0  0  0  0  0  0  0
   11.2403   40.7946   33.3700 O   0  0  0  0  0  0  0  0  0  0  0  0
   10.9152   40.6918   31.9979 C   0  0  0  0  0  0  0  0  0  0  0  0
   11.5271   39.3911   31.4385 C   0  0  0  0  0  0  0  0  0  0  0  0
   12.7516   39.0910   32.0843 O   0  0  0  0  0  0  0  0  0  0  0  0
   10.6112   38.1934   31.6452 C   0  0  0  0  0  0  0  0  0  0  0  0
   12.9412   37.6839   32.0301 C   0  0  0  0  0  0  0  0  0  0  0  0
    9.6061   38.0882   30.6601 O   0  0  0  0  0  0  0  0  0  0  0  0
   11.5821   37.0199   31.6876 C   0  0  0  0  0  0  0  0  0  0  0  0
   13.4843   37.2105   33.3256 N   0  0  0  0  0  0  0  0  0  0  0  0
   11.6184   36.3085   30.4683 O   0  0  0  0  0  0  0  0  0  0  0  0
   14.4800   36.3308   33.5738 C   0  0  0  0  0  0  0  0  0  0  0  0
   13.1139   37.6266   34.5705 C   0  0  0  0  0  0  0  0  0  0  0  0
   15.2077   35.6150   32.6747 N   0  0  0  0  0  0  0  0  0  0  0  0
   14.6761   36.2296   34.9189 C   0  0  0  0  0  0  0  0  0  0  0  0
   13.8220   37.0440   35.5794 N   0  0  0  0  0  0  0  0  0  0  0  0
   16.1648   34.7601   33.1551 C   0  0  0  0  0  0  0  0  0  0  0  0
   15.6531   35.3501   35.4135 C   0  0  0  0  0  0  0  0  0  0  0  0
   16.3802   34.6312   34.5046 N   0  0  0  0  0  0  0  0  0  0  0  0
   15.9001   35.1931   36.8095 N   0  0  0  0  0  0  0  0  0  0  0  0
    9.0099   45.4346   33.6682 H   0  0  0  0  0  0  0  0  0  0  0  0
   11.1130   46.1991   34.4879 H   0  0  0  0  0  0  0  0  0  0  0  0
   11.9343   45.6926   33.0917 H   0  0  0  0  0  0  0  0  0  0  0  0
   10.7283   44.8904   31.1669 H   0  0  0  0  0  0  0  0  0  0  0  0
    9.3476   43.8337   31.4775 H   0  0  0  0  0  0  0  0  0  0  0  0
    7.0066   44.7204   31.5881 H   0  0  0  0  0  0  0  0  0  0  0  0
   10.3477   47.1901   30.4205 H   0  0  0  0  0  0  0  0  0  0  0  0
    5.4609   46.3143   30.5073 H   0  0  0  0  0  0  0  0  0  0  0  0
    8.8069   48.7760   29.3671 H   0  0  0  0  0  0  0  0  0  0  0  0
    5.1618   49.3620   27.5989 H   0  0  0  0  0  0  0  0  0  0  0  0
    5.6257   47.5744   26.0044 H   0  0  0  0  0  0  0  0  0  0  0  0
    6.6192   46.6911   27.2433 H   0  0  0  0  0  0  0  0  0  0  0  0
    4.8579   46.9474   27.5038 H   0  0  0  0  0  0  0  0  0  0  0  0
    7.9790   48.0067   25.8686 H   0  0  0  0  0  0  0  0  0  0  0  0
    9.0404   52.4463   27.8756 H   0  0  0  0  0  0  0  0  0  0  0  0
   11.2945   50.8254   24.0134 H   0  0  0  0  0  0  0  0  0  0  0  0
   12.2308   49.9936   25.3443 H   0  0  0  0  0  0  0  0  0  0  0  0
    9.8244   40.7208   31.7652 H   0  0  0  0  0  0  0  0  0  0  0  0
   11.3786   41.5554   31.4739 H   0  0  0  0  0  0  0  0  0  0  0  0
   11.7318   39.5348   30.3531 H   0  0  0  0  0  0  0  0  0  0  0  0
   10.1199   38.2703   32.6408 H   0  0  0  0  0  0  0  0  0  0  0  0
   13.6850   37.4648   31.2324 H   0  0  0  0  0  0  0  0  0  0  0  0
   10.0244   38.1787   29.7654 H   0  0  0  0  0  0  0  0  0  0  0  0
   11.2752   36.3132   32.4902 H   0  0  0  0  0  0  0  0  0  0  0  0
   11.9855   36.9130   29.7712 H   0  0  0  0  0  0  0  0  0  0  0  0
   12.3308   38.3531   34.7463 H   0  0  0  0  0  0  0  0  0  0  0  0
   16.7566   34.1778   32.4622 H   0  0  0  0  0  0  0  0  0  0  0  0
   15.3525   35.7359   37.5137 H   0  0  0  0  0  0  0  0  0  0  0  0
   16.6348   34.5305   37.1429 H   0  0  0  0  0  0  0  0  0  0  0  0
  1  2  2  0
  1  3  1  0
  3  4  1  0
  4  5  1  0
  6  1  1  0
  7  6  1  0
  6  8  1  0
  8  9  1  0
  9 10  2  0
 11  9  1  0
 10 12  1  0
 13 11  2  0
 12 14  2  0
 14 13  1  0
 14 15  1  0
 15 16  1  0
 16 17  1  0
 16 18  1  0
 18 19  2  0
 20 18  1  0
 19 21  1  0
 22 20  2  0
 20 23  1  0
 21 24  1  0
 21 25  2  0
 25 22  1  0
 23 26  1  0
 23 27  2  0
 24 28  1  0
 25 29  1  0
 28 29  1  0
  4 30  2  0
  4 31  1  0
 32 31  1  0
 32 33  1  0
 33 34  1  0
 33 35  1  0
 34 36  1  0
 35 37  1  0
 35 38  1  0
 38 36  1  0
 36 39  1  0
 38 40  1  0
 41 39  1  0
 42 39  1  0
 43 41  2  0
 41 44  1  0
 45 42  2  0
 46 43  1  0
 44 47  2  0
 44 45  1  0
 48 46  2  0
 48 47  1  0
 47 49  1  0
  6 50  1  1
  7 51  1  0
  7 52  1  0
  8 53  1  0
  8 54  1  0
 10 55  1  0
 11 56  1  0
 12 57  1  0
 13 58  1  0
 16 59  1  1
 17 60  1  0
 17 61  1  0
 17 62  1  0
 19 63  1  0
 22 64  1  0
 28 65  1  0
 28 66  1  0
 32 67  1  0
 32 68  1  0
 33 69  1  0
 35 70  1  0
 36 71  1  0
 37 72  1  0
 38 73  1  0
 40 74  1  0
 42 75  1  0
 46 76  1  0
 49 77  1  0
 49 78  1  0
M  CHG  3   5  -1  23   1  26  -1
M  END
>  <EmbedRMS>  (282) 
0.0816745408753

$$$$

     RDKit          3D

 78 83  0  0  0  0  0  0  0  0999 V2000
   10.2803   43.7665   33.8246 C   0  0  0  0  0  0  0  0  0  0  0  0
   11.4110   43.5920   34.3663 O   0  0  0  0  0  0  0  0  0  0  0  0
    9.3616   42.7251   33.7346 O   0  0  0  0  0  0  0  0  0  0  0  0
    9.8896   41.2270   34.2945 P   0  0  0  0  0  0  0  0  0  0  0  0
   10.3733   41.4569   35.8837 O   0  0  0  0  0  0  0  0  0  0  0  0
    9.9458   45.0737   33.2107 C   0  0  1  0  0  0  0  0  0  0  0  0
   11.0264   46.0293   33.4704 N   0  0  0  0  0  0  0  0  0  0  0  0
    9.7534   44.8541   31.6942 C   0  0  0  0  0  0  0  0  0  0  0  0
    8.7952   45.8412   31.0838 C   0  0  0  0  0  0  0  0  0  0  0  0
    7.4070   45.6009   31.1020 C   0  0  0  0  0  0  0  0  0  0  0  0
    9.2830   46.9897   30.4398 C   0  0  0  0  0  0  0  0  0  0  0  0
    6.5257   46.5024   30.4882 C   0  0  0  0  0  0  0  0  0  0  0  0
    8.4004   47.8908   29.8333 C   0  0  0  0  0  0  0  0  0  0  0  0
    7.0205   47.6447   29.8444 C   0  0  0  0  0  0  0  0  0  0  0  0
    6.1403   48.5433   29.2341 O   0  0  0  0  0  0  0  0  0  0  0  0
    5.7910   48.4880   27.8472 C   0  0  2  0  0  0  0  0  0  0  0  0
    4.9158   47.2623   27.5472 C   0  0  0  0  0  0  0  0  0  0  0  0
    7.0274   48.5947   26.9596 C   0  0  0  0  0  0  0  0  0  0  0  0
    7.7533   47.4254   26.6111 C   0  0  0  0  0  0  0  0  0  0  0  0
    7.4864   49.8667   26.4749 C   0  0  0  0  0  0  0  0  0  0  0  0
    8.8482   47.5484   25.7669 C   0  0  0  0  0  0  0  0  0  0  0  0
    8.5951   49.9253   25.6008 C   0  0  0  0  0  0  0  0  0  0  0  0
    6.8688   51.0990   26.8803 N   0  0  0  0  0  0  0  0  0  0  0  0
    9.6846   46.5546   25.2960 O   0  0  0  0  0  0  0  0  0  0  0  0
    9.2465   48.7438   25.2768 C   0  0  0  0  0  0  0  0  0  0  0  0
    6.8061   52.1547   26.0001 O   0  0  0  0  0  0  0  0  0  0  0  0
    6.5979   51.3013   28.0820 O   0  0  0  0  0  0  0  0  0  0  0  0
   10.6703   47.1680   24.4544 C   0  0  0  0  0  0  0  0  0  0  0  0
   10.3539   48.5667   24.4699 O   0  0  0  0  0  0  0  0  0  0  0  0
    8.8122   40.1844   34.2136 O   0  0  0  0  0  0  0  0  0  0  0  0
   11.2401   40.7950   33.3698 O   0  0  0  0  0  0  0  0  0  0  0  0
   10.9144   40.6915   31.9981 C   0  0  0  0  0  0  0  0  0  0  0  0
   11.5269   39.3912   31.4386 C   0  0  0  0  0  0  0  0  0  0  0  0
   12.7519   39.0912   32.0838 O   0  0  0  0  0  0  0  0  0  0  0  0
   10.6114   38.1932   31.6451 C   0  0  0  0  0  0  0  0  0  0  0  0
   12.9413   37.6839   32.0297 C   0  0  0  0  0  0  0  0  0  0  0  0
    9.6064   38.0878   30.6599 O   0  0  0  0  0  0  0  0  0  0  0  0
   11.5822   37.0198   31.6876 C   0  0  0  0  0  0  0  0  0  0  0  0
   13.4840   37.2104   33.3254 N   0  0  0  0  0  0  0  0  0  0  0  0
   11.6180   36.3073   30.4690 O   0  0  0  0  0  0  0  0  0  0  0  0
   14.4796   36.3309   33.5738 C   0  0  0  0  0  0  0  0  0  0  0  0
   13.1136   37.6268   34.5702 C   0  0  0  0  0  0  0  0  0  0  0  0
   15.2074   35.6152   32.6747 N   0  0  0  0  0  0  0  0  0  0  0  0
   14.6756   36.2297   34.9190 C   0  0  0  0  0  0  0  0  0  0  0  0
   13.8217   37.0445   35.5793 N   0  0  0  0  0  0  0  0  0  0  0  0
   16.1643   34.7602   33.1551 C   0  0  0  0  0  0  0  0  0  0  0  0
   15.6528   35.3503   35.4136 C   0  0  0  0  0  0  0  0  0  0  0  0
   16.3798   34.6315   34.5046 N   0  0  0  0  0  0  0  0  0  0  0  0
   15.9003   35.1930   36.8094 N   0  0  0  0  0  0  0  0  0  0  0  0
    8.9994   45.4382   33.6716 H   0  0  0  0  0  0  0  0  0  0  0  0
   11.0496   46.2279   34.4979 H   0  0  0  0  0  0  0  0  0  0  0  0
   10.7763   46.9369   33.0152 H   0  0  0  0  0  0  0  0  0  0  0  0
   10.7404   44.9078   31.1826 H   0  0  0  0  0  0  0  0  0  0  0  0
    9.3636   43.8355   31.4706 H   0  0  0  0  0  0  0  0  0  0  0  0
    7.0116   44.7177   31.5883 H   0  0  0  0  0  0  0  0  0  0  0  0
   10.3467   47.1902   30.4071 H   0  0  0  0  0  0  0  0  0  0  0  0
    5.4605   46.3110   30.5101 H   0  0  0  0  0  0  0  0  0  0  0  0
    8.7891   48.7763   29.3465 H   0  0  0  0  0  0  0  0  0  0  0  0
    5.1310   49.3554   27.6383 H   0  0  0  0  0  0  0  0  0  0  0  0
    5.4093   46.3184   27.8545 H   0  0  0  0  0  0  0  0  0  0  0  0
    3.9607   47.3425   28.1084 H   0  0  0  0  0  0  0  0  0  0  0  0
    4.6820   47.2152   26.4621 H   0  0  0  0  0  0  0  0  0  0  0  0
    7.4844   46.4473   26.9833 H   0  0  0  0  0  0  0  0  0  0  0  0
    8.9600   50.8685   25.2150 H   0  0  0  0  0  0  0  0  0  0  0  0
   10.5948   46.7694   23.4209 H   0  0  0  0  0  0  0  0  0  0  0  0
   11.6866   47.0005   24.8685 H   0  0  0  0  0  0  0  0  0  0  0  0
   11.3778   41.5549   31.4742 H   0  0  0  0  0  0  0  0  0  0  0  0
    9.8234   40.7202   31.7651 H   0  0  0  0  0  0  0  0  0  0  0  0
   11.7310   39.5362   30.3532 H   0  0  0  0  0  0  0  0  0  0  0  0
   10.1205   38.2696   32.6412 H   0  0  0  0  0  0  0  0  0  0  0  0
   13.6851   37.4641   31.2321 H   0  0  0  0  0  0  0  0  0  0  0  0
   10.0249   38.1792   29.7654 H   0  0  0  0  0  0  0  0  0  0  0  0
   11.2758   36.3137   32.4908 H   0  0  0  0  0  0  0  0  0  0  0  0
   11.9840   36.9112   29.7709 H   0  0  0  0  0  0  0  0  0  0  0  0
   12.3307   38.3536   34.7457 H   0  0  0  0  0  0  0  0  0  0  0  0
   16.7566   34.1786   32.4623 H   0  0  0  0  0  0  0  0  0  0  0  0
   16.6353   34.5301   37.1418 H   0  0  0  0  0  0  0  0  0  0  0  0
   15.3535   35.7355   37.5144 H   0  0  0  0  0  0  0  0  0  0  0  0
  1  2  2  0
  1  3  1  0
  3  4  1  0
  4  5  1  0
  6  1  1  0
  7  6  1  0
  6  8  1  0
  8  9  1  0
  9 10  2  0
 11  9  1  0
 10 12  1  0
 13 11  2  0
 12 14  2  0
 14 13  1  0
 14 15  1  0
 15 16  1  0
 16 17  1  0
 16 18  1  0
 18 19  2  0
 20 18  1  0
 19 21  1  0
 22 20  2  0
 20 23  1  0
 21 24  1  0
 21 25  2  0
 25 22  1  0
 23 26  1  0
 23 27  2  0
 24 28  1  0
 25 29  1  0
 28 29  1  0
  4 30  2  0
  4 31  1  0
 32 31  1  0
 32 33  1  0
 33 34  1  0
 33 35  1  0
 34 36  1  0
 35 37  1  0
 35 38  1  0
 38 36  1  0
 36 39  1  0
 38 40  1  0
 41 39  1  0
 42 39  1  0
 43 41  2  0
 41 44  1  0
 45 42  2  0
 46 43  1  0
 44 47  2  0
 44 45  1  0
 48 46  2  0
 48 47  1  0
 47 49  1  0
  6 50  1  1
  7 51  1  0
  7 52  1  0
  8 53  1  0
  8 54  1  0
 10 55  1  0
 11 56  1  0
 12 57  1  0
 13 58  1  0
 16 59  1  6
 17 60  1  0
 17 61  1  0
 17 62  1  0
 19 63  1  0
 22 64  1  0
 28 65  1  0
 28 66  1  0
 32 67  1  0
 32 68  1  0
 33 69  1  0
 35 70  1  0
 36 71  1  0
 37 72  1  0
 38 73  1  0
 40 74  1  0
 42 75  1  0
 46 76  1  0
 49 77  1  0
 49 78  1  0
M  CHG  3   5  -1  23   1  26  -1
M  END
>  <EmbedRMS>  (283) 
0.0807715827583

$$$$

     RDKit          3D

 78 83  0  0  0  0  0  0  0  0999 V2000
   10.2800   43.7668   33.8249 C   0  0  0  0  0  0  0  0  0  0  0  0
   11.4107   43.5924   34.3664 O   0  0  0  0  0  0  0  0  0  0  0  0
    9.3617   42.7251   33.7343 O   0  0  0  0  0  0  0  0  0  0  0  0
    9.8903   41.2267   34.2931 P   0  0  0  0  0  0  0  0  0  0  0  0
   10.3742   41.4564   35.8823 O   0  0  0  0  0  0  0  0  0  0  0  0
    9.9450   45.0740   33.2111 C   0  0  1  0  0  0  0  0  0  0  0  0
   11.0252   46.0302   33.4709 N   0  0  0  0  0  0  0  0  0  0  0  0
    9.7536   44.8544   31.6948 C   0  0  0  0  0  0  0  0  0  0  0  0
    8.7955   45.8411   31.0841 C   0  0  0  0  0  0  0  0  0  0  0  0
    7.4077   45.5984   31.0991 C   0  0  0  0  0  0  0  0  0  0  0  0
    9.2835   46.9879   30.4367 C   0  0  0  0  0  0  0  0  0  0  0  0
    6.5268   46.4986   30.4837 C   0  0  0  0  0  0  0  0  0  0  0  0
    8.4008   47.8877   29.8273 C   0  0  0  0  0  0  0  0  0  0  0  0
    7.0202   47.6531   29.8587 C   0  0  0  0  0  0  0  0  0  0  0  0
    6.1410   48.5474   29.2432 O   0  0  0  0  0  0  0  0  0  0  0  0
    5.4896   49.6244   29.9248 C   0  0  2  0  0  0  0  0  0  0  0  0
    6.4559   50.7839   30.1877 C   0  0  0  0  0  0  0  0  0  0  0  0
    4.7016   49.1327   31.1391 C   0  0  0  0  0  0  0  0  0  0  0  0
    3.3502   48.7643   30.9190 C   0  0  0  0  0  0  0  0  0  0  0  0
    5.2679   48.9227   32.4447 C   0  0  0  0  0  0  0  0  0  0  0  0
    2.6236   48.2194   31.9695 C   0  0  0  0  0  0  0  0  0  0  0  0
    4.4832   48.3576   33.4722 C   0  0  0  0  0  0  0  0  0  0  0  0
    6.6155   49.2778   32.7576 N   0  0  0  0  0  0  0  0  0  0  0  0
    1.3094   47.7928   31.9745 O   0  0  0  0  0  0  0  0  0  0  0  0
    3.1667   48.0230   33.1916 C   0  0  0  0  0  0  0  0  0  0  0  0
    7.5143   48.2785   33.0472 O   0  0  0  0  0  0  0  0  0  0  0  0
    6.8526   50.4315   33.1699 O   0  0  0  0  0  0  0  0  0  0  0  0
    1.0098   47.2990   33.2872 C   0  0  0  0  0  0  0  0  0  0  0  0
    2.2236   47.4645   34.0327 O   0  0  0  0  0  0  0  0  0  0  0  0
    8.8125   40.1845   34.2130 O   0  0  0  0  0  0  0  0  0  0  0  0
   11.2405   40.7949   33.3668 O   0  0  0  0  0  0  0  0  0  0  0  0
   10.9133   40.6867   31.9952 C   0  0  0  0  0  0  0  0  0  0  0  0
   11.5166   39.3787   31.4404 C   0  0  0  0  0  0  0  0  0  0  0  0
   12.7485   39.0849   32.0735 O   0  0  0  0  0  0  0  0  0  0  0  0
   10.6038   38.1884   31.6669 C   0  0  0  0  0  0  0  0  0  0  0  0
   12.9329   37.6776   32.0284 C   0  0  0  0  0  0  0  0  0  0  0  0
    9.6373   38.0938   30.6485 O   0  0  0  0  0  0  0  0  0  0  0  0
   11.5737   37.0141   31.7055 C   0  0  0  0  0  0  0  0  0  0  0  0
   13.4853   37.2120   33.3238 N   0  0  0  0  0  0  0  0  0  0  0  0
   11.6210   36.3379   30.4683 O   0  0  0  0  0  0  0  0  0  0  0  0
   14.4804   36.3319   33.5726 C   0  0  0  0  0  0  0  0  0  0  0  0
   13.1141   37.6275   34.5689 C   0  0  0  0  0  0  0  0  0  0  0  0
   15.2075   35.6152   32.6740 N   0  0  0  0  0  0  0  0  0  0  0  0
   14.6761   36.2306   34.9181 C   0  0  0  0  0  0  0  0  0  0  0  0
   13.8218   37.0451   35.5783 N   0  0  0  0  0  0  0  0  0  0  0  0
   16.1641   34.7600   33.1548 C   0  0  0  0  0  0  0  0  0  0  0  0
   15.6527   35.3506   35.4131 C   0  0  0  0  0  0  0  0  0  0  0  0
   16.3795   34.6315   34.5043 N   0  0  0  0  0  0  0  0  0  0  0  0
   15.9000   35.1933   36.8090 N   0  0  0  0  0  0  0  0  0  0  0  0
    8.9982   45.4384   33.6716 H   0  0  0  0  0  0  0  0  0  0  0  0
   11.0486   46.2284   34.4983 H   0  0  0  0  0  0  0  0  0  0  0  0
   10.7737   46.9379   33.0165 H   0  0  0  0  0  0  0  0  0  0  0  0
   10.7409   44.9082   31.1839 H   0  0  0  0  0  0  0  0  0  0  0  0
    9.3643   43.8356   31.4710 H   0  0  0  0  0  0  0  0  0  0  0  0
    7.0125   44.7133   31.5820 H   0  0  0  0  0  0  0  0  0  0  0  0
   10.3475   47.1858   30.3997 H   0  0  0  0  0  0  0  0  0  0  0  0
    5.4624   46.3021   30.4981 H   0  0  0  0  0  0  0  0  0  0  0  0
    8.7901   48.7661   29.3287 H   0  0  0  0  0  0  0  0  0  0  0  0
    4.7535   50.0414   29.2022 H   0  0  0  0  0  0  0  0  0  0  0  0
    7.3985   50.4345   30.6515 H   0  0  0  0  0  0  0  0  0  0  0  0
    6.7283   51.2630   29.2232 H   0  0  0  0  0  0  0  0  0  0  0  0
    5.9750   51.5511   30.8311 H   0  0  0  0  0  0  0  0  0  0  0  0
    2.8815   48.8791   29.9496 H   0  0  0  0  0  0  0  0  0  0  0  0
    4.8914   48.1910   34.4610 H   0  0  0  0  0  0  0  0  0  0  0  0
    0.1941   47.8966   33.7454 H   0  0  0  0  0  0  0  0  0  0  0  0
    0.7328   46.2250   33.2395 H   0  0  0  0  0  0  0  0  0  0  0  0
    9.8224   40.7224   31.7629 H   0  0  0  0  0  0  0  0  0  0  0  0
   11.3825   41.5438   31.4665 H   0  0  0  0  0  0  0  0  0  0  0  0
   11.6979   39.5036   30.3478 H   0  0  0  0  0  0  0  0  0  0  0  0
   10.1083   38.2787   32.6627 H   0  0  0  0  0  0  0  0  0  0  0  0
   13.6638   37.4473   31.2214 H   0  0  0  0  0  0  0  0  0  0  0  0
    8.9762   37.4191   30.9532 H   0  0  0  0  0  0  0  0  0  0  0  0
   11.2821   36.3054   32.5172 H   0  0  0  0  0  0  0  0  0  0  0  0
   10.8658   35.6936   30.4652 H   0  0  0  0  0  0  0  0  0  0  0  0
   12.3293   38.3523   34.7445 H   0  0  0  0  0  0  0  0  0  0  0  0
   16.7561   34.1778   32.4621 H   0  0  0  0  0  0  0  0  0  0  0  0
   16.6345   34.5300   37.1416 H   0  0  0  0  0  0  0  0  0  0  0  0
   15.3533   35.7361   37.5138 H   0  0  0  0  0  0  0  0  0  0  0  0
  1  2  2  0
  1  3  1  0
  3  4  1  0
  4  5  1  0
  6  1  1  0
  7  6  1  0
  6  8  1  0
  8  9  1  0
  9 10  2  0
 11  9  1  0
 10 12  1  0
 13 11  2  0
 12 14  2  0
 14 13  1  0
 14 15  1  0
 15 16  1  0
 16 17  1  0
 16 18  1  0
 18 19  2  0
 20 18  1  0
 19 21  1  0
 22 20  2  0
 20 23  1  0
 21 24  1  0
 21 25  2  0
 25 22  1  0
 23 26  1  0
 23 27  2  0
 24 28  1  0
 25 29  1  0
 28 29  1  0
  4 30  2  0
  4 31  1  0
 32 31  1  0
 32 33  1  0
 33 34  1  0
 33 35  1  0
 34 36  1  0
 35 37  1  0
 35 38  1  0
 38 36  1  0
 36 39  1  0
 38 40  1  0
 41 39  1  0
 42 39  1  0
 43 41  2  0
 41 44  1  0
 45 42  2  0
 46 43  1  0
 44 47  2  0
 44 45  1  0
 48 46  2  0
 48 47  1  0
 47 49  1  0
  6 50  1  1
  7 51  1  0
  7 52  1  0
  8 53  1  0
  8 54  1  0
 10 55  1  0
 11 56  1  0
 12 57  1  0
 13 58  1  0
 16 59  1  6
 17 60  1  0
 17 61  1  0
 17 62  1  0
 19 63  1  0
 22 64  1  0
 28 65  1  0
 28 66  1  0
 32 67  1  0
 32 68  1  0
 33 69  1  0
 35 70  1  0
 36 71  1  0
 37 72  1  0
 38 73  1  0
 40 74  1  0
 42 75  1  0
 46 76  1  0
 49 77  1  0
 49 78  1  0
M  CHG  3   5  -1  23   1  26  -1
M  END
>  <EmbedRMS>  (284) 
0.0825365505058

$$$$

     RDKit          3D

 78 83  0  0  0  0  0  0  0  0999 V2000
   10.2838   43.7626   33.8276 C   0  0  0  0  0  0  0  0  0  0  0  0
   11.4103   43.5863   34.3766 O   0  0  0  0  0  0  0  0  0  0  0  0
    9.3631   42.7236   33.7353 O   0  0  0  0  0  0  0  0  0  0  0  0
    9.8898   41.2247   34.2935 P   0  0  0  0  0  0  0  0  0  0  0  0
   10.3734   41.4543   35.8829 O   0  0  0  0  0  0  0  0  0  0  0  0
    9.9548   45.0699   33.2063 C   0  0  1  0  0  0  0  0  0  0  0  0
   11.0198   46.0480   33.4567 N   0  0  0  0  0  0  0  0  0  0  0  0
    9.7500   44.8508   31.6923 C   0  0  0  0  0  0  0  0  0  0  0  0
    8.7942   45.8418   31.0869 C   0  0  0  0  0  0  0  0  0  0  0  0
    7.4073   45.6013   31.1004 C   0  0  0  0  0  0  0  0  0  0  0  0
    9.2832   46.9892   30.4451 C   0  0  0  0  0  0  0  0  0  0  0  0
    6.5279   46.5022   30.4847 C   0  0  0  0  0  0  0  0  0  0  0  0
    8.4038   47.8902   29.8330 C   0  0  0  0  0  0  0  0  0  0  0  0
    7.0148   47.6508   29.8462 C   0  0  0  0  0  0  0  0  0  0  0  0
    6.0893   48.5142   29.2366 O   0  0  0  0  0  0  0  0  0  0  0  0
    6.4216   49.6822   28.4827 C   0  0  2  0  0  0  0  0  0  0  0  0
    5.1595   50.4985   28.2061 C   0  0  0  0  0  0  0  0  0  0  0  0
    7.1370   49.3457   27.1821 C   0  0  0  0  0  0  0  0  0  0  0  0
    8.1099   50.2665   26.7231 C   0  0  0  0  0  0  0  0  0  0  0  0
    6.9118   48.1360   26.4357 C   0  0  0  0  0  0  0  0  0  0  0  0
    8.8352   49.9565   25.5809 C   0  0  0  0  0  0  0  0  0  0  0  0
    7.6943   47.8692   25.2895 C   0  0  0  0  0  0  0  0  0  0  0  0
    5.9229   47.1685   26.8204 N   0  0  0  0  0  0  0  0  0  0  0  0
    9.8279   50.6957   24.9669 O   0  0  0  0  0  0  0  0  0  0  0  0
    8.6392   48.8068   24.8970 C   0  0  0  0  0  0  0  0  0  0  0  0
    6.1934   45.8265   26.6839 O   0  0  0  0  0  0  0  0  0  0  0  0
    4.7522   47.5237   27.0633 O   0  0  0  0  0  0  0  0  0  0  0  0
   10.2829   49.9606   23.8226 C   0  0  0  0  0  0  0  0  0  0  0  0
    9.4974   48.7607   23.8151 O   0  0  0  0  0  0  0  0  0  0  0  0
    8.8115   40.1834   34.2126 O   0  0  0  0  0  0  0  0  0  0  0  0
   11.2402   40.7936   33.3673 O   0  0  0  0  0  0  0  0  0  0  0  0
   10.9134   40.6864   31.9955 C   0  0  0  0  0  0  0  0  0  0  0  0
   11.5166   39.3786   31.4404 C   0  0  0  0  0  0  0  0  0  0  0  0
   12.7486   39.0849   32.0734 O   0  0  0  0  0  0  0  0  0  0  0  0
   10.6039   38.1883   31.6669 C   0  0  0  0  0  0  0  0  0  0  0  0
   12.9329   37.6775   32.0284 C   0  0  0  0  0  0  0  0  0  0  0  0
    9.6374   38.0938   30.6484 O   0  0  0  0  0  0  0  0  0  0  0  0
   11.5737   37.0140   31.7055 C   0  0  0  0  0  0  0  0  0  0  0  0
   13.4853   37.2120   33.3238 N   0  0  0  0  0  0  0  0  0  0  0  0
   11.6210   36.3379   30.4683 O   0  0  0  0  0  0  0  0  0  0  0  0
   14.4804   36.3319   33.5726 C   0  0  0  0  0  0  0  0  0  0  0  0
   13.1141   37.6275   34.5689 C   0  0  0  0  0  0  0  0  0  0  0  0
   15.2076   35.6152   32.6740 N   0  0  0  0  0  0  0  0  0  0  0  0
   14.6761   36.2306   34.9181 C   0  0  0  0  0  0  0  0  0  0  0  0
   13.8218   37.0451   35.5783 N   0  0  0  0  0  0  0  0  0  0  0  0
   16.1642   34.7600   33.1548 C   0  0  0  0  0  0  0  0  0  0  0  0
   15.6527   35.3507   35.4131 C   0  0  0  0  0  0  0  0  0  0  0  0
   16.3795   34.6315   34.5043 N   0  0  0  0  0  0  0  0  0  0  0  0
   15.9000   35.1933   36.8090 N   0  0  0  0  0  0  0  0  0  0  0  0
    9.0099   45.4349   33.6671 H   0  0  0  0  0  0  0  0  0  0  0  0
   11.9348   45.6932   33.0922 H   0  0  0  0  0  0  0  0  0  0  0  0
   11.1135   46.1992   34.4880 H   0  0  0  0  0  0  0  0  0  0  0  0
    9.3507   43.8343   31.4762 H   0  0  0  0  0  0  0  0  0  0  0  0
   10.7303   44.8922   31.1674 H   0  0  0  0  0  0  0  0  0  0  0  0
    7.0107   44.7160   31.5820 H   0  0  0  0  0  0  0  0  0  0  0  0
   10.3475   47.1881   30.4165 H   0  0  0  0  0  0  0  0  0  0  0  0
    5.4638   46.3036   30.4992 H   0  0  0  0  0  0  0  0  0  0  0  0
    8.8172   48.7647   29.3513 H   0  0  0  0  0  0  0  0  0  0  0  0
    7.0754   50.3224   29.1170 H   0  0  0  0  0  0  0  0  0  0  0  0
    4.4570   49.9500   27.5476 H   0  0  0  0  0  0  0  0  0  0  0  0
    5.4274   51.4588   27.7157 H   0  0  0  0  0  0  0  0  0  0  0  0
    4.6438   50.7268   29.1629 H   0  0  0  0  0  0  0  0  0  0  0  0
    8.3066   51.1913   27.2511 H   0  0  0  0  0  0  0  0  0  0  0  0
    7.5553   46.9648   24.7112 H   0  0  0  0  0  0  0  0  0  0  0  0
   10.1018   50.5430   22.8950 H   0  0  0  0  0  0  0  0  0  0  0  0
   11.3599   49.7128   23.9287 H   0  0  0  0  0  0  0  0  0  0  0  0
   11.3831   41.5438   31.4675 H   0  0  0  0  0  0  0  0  0  0  0  0
    9.8226   40.7225   31.7629 H   0  0  0  0  0  0  0  0  0  0  0  0
   11.6978   39.5037   30.3478 H   0  0  0  0  0  0  0  0  0  0  0  0
   10.1084   38.2785   32.6626 H   0  0  0  0  0  0  0  0  0  0  0  0
   13.6638   37.4471   31.2214 H   0  0  0  0  0  0  0  0  0  0  0  0
    8.9763   37.4190   30.9531 H   0  0  0  0  0  0  0  0  0  0  0  0
   11.2821   36.3053   32.5171 H   0  0  0  0  0  0  0  0  0  0  0  0
   10.8658   35.6935   30.4652 H   0  0  0  0  0  0  0  0  0  0  0  0
   12.3293   38.3523   34.7444 H   0  0  0  0  0  0  0  0  0  0  0  0
   16.7561   34.1778   32.4621 H   0  0  0  0  0  0  0  0  0  0  0  0
   16.6345   34.5300   37.1416 H   0  0  0  0  0  0  0  0  0  0  0  0
   15.3533   35.7361   37.5138 H   0  0  0  0  0  0  0  0  0  0  0  0
  1  2  2  0
  1  3  1  0
  3  4  1  0
  4  5  1  0
  6  1  1  0
  7  6  1  0
  6  8  1  0
  8  9  1  0
  9 10  2  0
 11  9  1  0
 10 12  1  0
 13 11  2  0
 12 14  2  0
 14 13  1  0
 14 15  1  0
 15 16  1  0
 16 17  1  0
 16 18  1  0
 18 19  2  0
 20 18  1  0
 19 21  1  0
 22 20  2  0
 20 23  1  0
 21 24  1  0
 21 25  2  0
 25 22  1  0
 23 26  1  0
 23 27  2  0
 24 28  1  0
 25 29  1  0
 28 29  1  0
  4 30  2  0
  4 31  1  0
 32 31  1  0
 32 33  1  0
 33 34  1  0
 33 35  1  0
 34 36  1  0
 35 37  1  0
 35 38  1  0
 38 36  1  0
 36 39  1  0
 38 40  1  0
 41 39  1  0
 42 39  1  0
 43 41  2  0
 41 44  1  0
 45 42  2  0
 46 43  1  0
 44 47  2  0
 44 45  1  0
 48 46  2  0
 48 47  1  0
 47 49  1  0
  6 50  1  1
  7 51  1  0
  7 52  1  0
  8 53  1  0
  8 54  1  0
 10 55  1  0
 11 56  1  0
 12 57  1  0
 13 58  1  0
 16 59  1  1
 17 60  1  0
 17 61  1  0
 17 62  1  0
 19 63  1  0
 22 64  1  0
 28 65  1  0
 28 66  1  0
 32 67  1  0
 32 68  1  0
 33 69  1  0
 35 70  1  0
 36 71  1  0
 37 72  1  0
 38 73  1  0
 40 74  1  0
 42 75  1  0
 46 76  1  0
 49 77  1  0
 49 78  1  0
M  CHG  3   5  -1  23   1  26  -1
M  END
>  <EmbedRMS>  (285) 
0.0834623253678

$$$$

     RDKit          3D

 78 83  0  0  0  0  0  0  0  0999 V2000
   10.2834   43.7662   33.8258 C   0  0  0  0  0  0  0  0  0  0  0  0
   11.4102   43.5931   34.3753 O   0  0  0  0  0  0  0  0  0  0  0  0
    9.3638   42.7255   33.7352 O   0  0  0  0  0  0  0  0  0  0  0  0
    9.8904   41.2268   34.2946 P   0  0  0  0  0  0  0  0  0  0  0  0
   10.3729   41.4561   35.8842 O   0  0  0  0  0  0  0  0  0  0  0  0
    9.9546   45.0695   33.2036 C   0  0  1  0  0  0  0  0  0  0  0  0
   11.0272   46.0323   33.4756 N   0  0  0  0  0  0  0  0  0  0  0  0
    9.7467   44.8477   31.6877 C   0  0  0  0  0  0  0  0  0  0  0  0
    8.7924   45.8402   31.0842 C   0  0  0  0  0  0  0  0  0  0  0  0
    7.4062   45.6013   31.0987 C   0  0  0  0  0  0  0  0  0  0  0  0
    9.2817   46.9869   30.4425 C   0  0  0  0  0  0  0  0  0  0  0  0
    6.5280   46.5034   30.4840 C   0  0  0  0  0  0  0  0  0  0  0  0
    8.4031   47.8894   29.8320 C   0  0  0  0  0  0  0  0  0  0  0  0
    7.0128   47.6547   29.8471 C   0  0  0  0  0  0  0  0  0  0  0  0
    6.0718   48.5231   29.2635 O   0  0  0  0  0  0  0  0  0  0  0  0
    6.3270   49.7403   28.5494 C   0  0  2  0  0  0  0  0  0  0  0  0
    6.9363   49.4257   27.1738 C   0  0  0  0  0  0  0  0  0  0  0  0
    7.0779   50.7551   29.4134 C   0  0  0  0  0  0  0  0  0  0  0  0
    8.2314   51.4231   28.9181 C   0  0  0  0  0  0  0  0  0  0  0  0
    6.6438   51.0313   30.7560 C   0  0  0  0  0  0  0  0  0  0  0  0
    8.9186   52.2838   29.7631 C   0  0  0  0  0  0  0  0  0  0  0  0
    7.3957   51.9075   31.5720 C   0  0  0  0  0  0  0  0  0  0  0  0
    5.4595   50.4291   31.3059 N   0  0  0  0  0  0  0  0  0  0  0  0
   10.0596   53.0166   29.4975 O   0  0  0  0  0  0  0  0  0  0  0  0
    8.5218   52.5119   31.0344 C   0  0  0  0  0  0  0  0  0  0  0  0
    4.2924   50.3945   30.5791 O   0  0  0  0  0  0  0  0  0  0  0  0
    5.4269   50.1033   32.5106 O   0  0  0  0  0  0  0  0  0  0  0  0
   10.3989   53.7518   30.6810 C   0  0  0  0  0  0  0  0  0  0  0  0
    9.3905   53.4007   31.6381 O   0  0  0  0  0  0  0  0  0  0  0  0
    8.8125   40.1848   34.2126 O   0  0  0  0  0  0  0  0  0  0  0  0
   11.2416   40.7948   33.3707 O   0  0  0  0  0  0  0  0  0  0  0  0
   10.9179   40.6922   31.9984 C   0  0  0  0  0  0  0  0  0  0  0  0
   11.5175   39.3838   31.4423 C   0  0  0  0  0  0  0  0  0  0  0  0
   12.7508   39.0887   32.0752 O   0  0  0  0  0  0  0  0  0  0  0  0
   10.6028   38.1916   31.6659 C   0  0  0  0  0  0  0  0  0  0  0  0
   12.9385   37.6819   32.0278 C   0  0  0  0  0  0  0  0  0  0  0  0
    9.6371   38.0806   30.6470 O   0  0  0  0  0  0  0  0  0  0  0  0
   11.5780   37.0215   31.6935 C   0  0  0  0  0  0  0  0  0  0  0  0
   13.4844   37.2119   33.3242 N   0  0  0  0  0  0  0  0  0  0  0  0
   11.6095   36.3202   30.4679 O   0  0  0  0  0  0  0  0  0  0  0  0
   14.4797   36.3318   33.5730 C   0  0  0  0  0  0  0  0  0  0  0  0
   13.1136   37.6278   34.5691 C   0  0  0  0  0  0  0  0  0  0  0  0
   15.2073   35.6155   32.6742 N   0  0  0  0  0  0  0  0  0  0  0  0
   14.6754   36.2305   34.9184 C   0  0  0  0  0  0  0  0  0  0  0  0
   13.8213   37.0452   35.5785 N   0  0  0  0  0  0  0  0  0  0  0  0
   16.1640   34.7604   33.1549 C   0  0  0  0  0  0  0  0  0  0  0  0
   15.6524   35.3507   35.4132 C   0  0  0  0  0  0  0  0  0  0  0  0
   16.3794   34.6318   34.5044 N   0  0  0  0  0  0  0  0  0  0  0  0
   15.8999   35.1934   36.8091 N   0  0  0  0  0  0  0  0  0  0  0  0
    9.0119   45.4317   33.6713 H   0  0  0  0  0  0  0  0  0  0  0  0
   10.7256   46.9689   33.1213 H   0  0  0  0  0  0  0  0  0  0  0  0
   11.8904   45.7661   32.9468 H   0  0  0  0  0  0  0  0  0  0  0  0
    9.3417   43.8325   31.4764 H   0  0  0  0  0  0  0  0  0  0  0  0
   10.7231   44.8811   31.1558 H   0  0  0  0  0  0  0  0  0  0  0  0
    7.0086   44.7169   31.5812 H   0  0  0  0  0  0  0  0  0  0  0  0
   10.3463   47.1845   30.4130 H   0  0  0  0  0  0  0  0  0  0  0  0
    5.4634   46.3080   30.5054 H   0  0  0  0  0  0  0  0  0  0  0  0
    8.8253   48.7596   29.3581 H   0  0  0  0  0  0  0  0  0  0  0  0
    5.3389   50.1942   28.3259 H   0  0  0  0  0  0  0  0  0  0  0  0
    6.3132   48.6637   26.6593 H   0  0  0  0  0  0  0  0  0  0  0  0
    6.9460   50.3374   26.5392 H   0  0  0  0  0  0  0  0  0  0  0  0
    7.9664   49.0266   27.2584 H   0  0  0  0  0  0  0  0  0  0  0  0
    8.6080   51.2740   27.9169 H   0  0  0  0  0  0  0  0  0  0  0  0
    7.0975   52.1258   32.5894 H   0  0  0  0  0  0  0  0  0  0  0  0
   10.3703   54.8427   30.4769 H   0  0  0  0  0  0  0  0  0  0  0  0
   11.4003   53.4456   31.0495 H   0  0  0  0  0  0  0  0  0  0  0  0
    9.8291   40.7409   31.7627 H   0  0  0  0  0  0  0  0  0  0  0  0
   11.3951   41.5478   31.4744 H   0  0  0  0  0  0  0  0  0  0  0  0
   11.6981   39.5115   30.3500 H   0  0  0  0  0  0  0  0  0  0  0  0
   10.1117   38.2604   32.6661 H   0  0  0  0  0  0  0  0  0  0  0  0
   13.6767   37.4556   31.2267 H   0  0  0  0  0  0  0  0  0  0  0  0
    8.8961   38.6952   30.8872 H   0  0  0  0  0  0  0  0  0  0  0  0
   11.2791   36.3072   32.4922 H   0  0  0  0  0  0  0  0  0  0  0  0
   11.8828   36.9598   29.7589 H   0  0  0  0  0  0  0  0  0  0  0  0
   12.3300   38.3539   34.7446 H   0  0  0  0  0  0  0  0  0  0  0  0
   16.7561   34.1785   32.4622 H   0  0  0  0  0  0  0  0  0  0  0  0
   16.6347   34.5303   37.1416 H   0  0  0  0  0  0  0  0  0  0  0  0
   15.3531   35.7360   37.5140 H   0  0  0  0  0  0  0  0  0  0  0  0
  1  2  2  0
  1  3  1  0
  3  4  1  0
  4  5  1  0
  6  1  1  0
  7  6  1  0
  6  8  1  0
  8  9  1  0
  9 10  2  0
 11  9  1  0
 10 12  1  0
 13 11  2  0
 12 14  2  0
 14 13  1  0
 14 15  1  0
 15 16  1  0
 16 17  1  0
 16 18  1  0
 18 19  2  0
 20 18  1  0
 19 21  1  0
 22 20  2  0
 20 23  1  0
 21 24  1  0
 21 25  2  0
 25 22  1  0
 23 26  1  0
 23 27  2  0
 24 28  1  0
 25 29  1  0
 28 29  1  0
  4 30  2  0
  4 31  1  0
 32 31  1  0
 32 33  1  0
 33 34  1  0
 33 35  1  0
 34 36  1  0
 35 37  1  0
 35 38  1  0
 38 36  1  0
 36 39  1  0
 38 40  1  0
 41 39  1  0
 42 39  1  0
 43 41  2  0
 41 44  1  0
 45 42  2  0
 46 43  1  0
 44 47  2  0
 44 45  1  0
 48 46  2  0
 48 47  1  0
 47 49  1  0
  6 50  1  1
  7 51  1  0
  7 52  1  0
  8 53  1  0
  8 54  1  0
 10 55  1  0
 11 56  1  0
 12 57  1  0
 13 58  1  0
 16 59  1  6
 17 60  1  0
 17 61  1  0
 17 62  1  0
 19 63  1  0
 22 64  1  0
 28 65  1  0
 28 66  1  0
 32 67  1  0
 32 68  1  0
 33 69  1  0
 35 70  1  0
 36 71  1  0
 37 72  1  0
 38 73  1  0
 40 74  1  0
 42 75  1  0
 46 76  1  0
 49 77  1  0
 49 78  1  0
M  CHG  3   5  -1  23   1  26  -1
M  END
>  <EmbedRMS>  (286) 
0.081974982612

$$$$

     RDKit          3D

 78 83  0  0  0  0  0  0  0  0999 V2000
   10.2834   43.7663   33.8257 C   0  0  0  0  0  0  0  0  0  0  0  0
   11.4101   43.5930   34.3752 O   0  0  0  0  0  0  0  0  0  0  0  0
    9.3635   42.7257   33.7352 O   0  0  0  0  0  0  0  0  0  0  0  0
    9.8902   41.2269   34.2942 P   0  0  0  0  0  0  0  0  0  0  0  0
   10.3739   41.4560   35.8835 O   0  0  0  0  0  0  0  0  0  0  0  0
    9.9547   45.0696   33.2035 C   0  0  1  0  0  0  0  0  0  0  0  0
   11.0273   46.0323   33.4759 N   0  0  0  0  0  0  0  0  0  0  0  0
    9.7472   44.8483   31.6875 C   0  0  0  0  0  0  0  0  0  0  0  0
    8.7927   45.8407   31.0841 C   0  0  0  0  0  0  0  0  0  0  0  0
    7.4061   45.6011   31.0993 C   0  0  0  0  0  0  0  0  0  0  0  0
    9.2817   46.9877   30.4423 C   0  0  0  0  0  0  0  0  0  0  0  0
    6.5242   46.5013   30.4856 C   0  0  0  0  0  0  0  0  0  0  0  0
    8.4004   47.8881   29.8331 C   0  0  0  0  0  0  0  0  0  0  0  0
    7.0184   47.6567   29.8446 C   0  0  0  0  0  0  0  0  0  0  0  0
    6.1872   48.6015   29.2196 O   0  0  0  0  0  0  0  0  0  0  0  0
    4.7667   48.5111   29.0739 C   0  0  2  0  0  0  0  0  0  0  0  0
    4.4390   47.5160   27.9494 C   0  0  0  0  0  0  0  0  0  0  0  0
    4.2152   49.9210   28.8656 C   0  0  0  0  0  0  0  0  0  0  0  0
    3.4523   50.2570   27.7119 C   0  0  0  0  0  0  0  0  0  0  0  0
    4.4992   50.9545   29.8272 C   0  0  0  0  0  0  0  0  0  0  0  0
    3.0275   51.5688   27.5498 C   0  0  0  0  0  0  0  0  0  0  0  0
    4.0511   52.2744   29.5954 C   0  0  0  0  0  0  0  0  0  0  0  0
    5.2547   50.6950   31.0234 N   0  0  0  0  0  0  0  0  0  0  0  0
    2.2878   52.1087   26.5150 O   0  0  0  0  0  0  0  0  0  0  0  0
    3.3165   52.5346   28.4491 C   0  0  0  0  0  0  0  0  0  0  0  0
    6.1022   51.6593   31.5183 O   0  0  0  0  0  0  0  0  0  0  0  0
    5.0041   49.6976   31.7300 O   0  0  0  0  0  0  0  0  0  0  0  0
    2.1013   53.5045   26.7853 C   0  0  0  0  0  0  0  0  0  0  0  0
    2.7744   53.7345   28.0303 O   0  0  0  0  0  0  0  0  0  0  0  0
    8.8120   40.1852   34.2131 O   0  0  0  0  0  0  0  0  0  0  0  0
   11.2402   40.7951   33.3682 O   0  0  0  0  0  0  0  0  0  0  0  0
   10.9125   40.6877   31.9968 C   0  0  0  0  0  0  0  0  0  0  0  0
   11.5169   39.3811   31.4421 C   0  0  0  0  0  0  0  0  0  0  0  0
   12.7500   39.0881   32.0759 O   0  0  0  0  0  0  0  0  0  0  0  0
   10.6043   38.1893   31.6659 C   0  0  0  0  0  0  0  0  0  0  0  0
   12.9395   37.6814   32.0280 C   0  0  0  0  0  0  0  0  0  0  0  0
    9.6353   38.0951   30.6499 O   0  0  0  0  0  0  0  0  0  0  0  0
   11.5804   37.0191   31.6934 C   0  0  0  0  0  0  0  0  0  0  0  0
   13.4851   37.2119   33.3244 N   0  0  0  0  0  0  0  0  0  0  0  0
   11.6118   36.3189   30.4673 O   0  0  0  0  0  0  0  0  0  0  0  0
   14.4801   36.3316   33.5732 C   0  0  0  0  0  0  0  0  0  0  0  0
   13.1139   37.6277   34.5692 C   0  0  0  0  0  0  0  0  0  0  0  0
   15.2076   35.6154   32.6744 N   0  0  0  0  0  0  0  0  0  0  0  0
   14.6756   36.2303   34.9186 C   0  0  0  0  0  0  0  0  0  0  0  0
   13.8215   37.0451   35.5786 N   0  0  0  0  0  0  0  0  0  0  0  0
   16.1642   34.7602   33.1551 C   0  0  0  0  0  0  0  0  0  0  0  0
   15.6526   35.3505   35.4134 C   0  0  0  0  0  0  0  0  0  0  0  0
   16.3796   34.6316   34.5045 N   0  0  0  0  0  0  0  0  0  0  0  0
   15.9001   35.1933   36.8093 N   0  0  0  0  0  0  0  0  0  0  0  0
    9.0120   45.4318   33.6710 H   0  0  0  0  0  0  0  0  0  0  0  0
   10.7261   46.9688   33.1214 H   0  0  0  0  0  0  0  0  0  0  0  0
   11.8908   45.7659   32.9475 H   0  0  0  0  0  0  0  0  0  0  0  0
    9.3427   43.8330   31.4758 H   0  0  0  0  0  0  0  0  0  0  0  0
   10.7237   44.8823   31.1558 H   0  0  0  0  0  0  0  0  0  0  0  0
    7.0106   44.7162   31.5827 H   0  0  0  0  0  0  0  0  0  0  0  0
   10.3459   47.1866   30.4112 H   0  0  0  0  0  0  0  0  0  0  0  0
    5.4672   46.2831   30.5208 H   0  0  0  0  0  0  0  0  0  0  0  0
    8.7941   48.7710   29.3456 H   0  0  0  0  0  0  0  0  0  0  0  0
    4.3047   48.1208   30.0035 H   0  0  0  0  0  0  0  0  0  0  0  0
    4.8710   46.5200   28.1763 H   0  0  0  0  0  0  0  0  0  0  0  0
    3.3399   47.3885   27.8523 H   0  0  0  0  0  0  0  0  0  0  0  0
    4.8701   47.8617   26.9857 H   0  0  0  0  0  0  0  0  0  0  0  0
    3.1946   49.5396   26.9472 H   0  0  0  0  0  0  0  0  0  0  0  0
    4.2561   53.0711   30.2988 H   0  0  0  0  0  0  0  0  0  0  0  0
    1.0200   53.7352   26.8860 H   0  0  0  0  0  0  0  0  0  0  0  0
    2.5620   54.1164   25.9817 H   0  0  0  0  0  0  0  0  0  0  0  0
    9.8216   40.7222   31.7646 H   0  0  0  0  0  0  0  0  0  0  0  0
   11.3808   41.5456   31.4686 H   0  0  0  0  0  0  0  0  0  0  0  0
   11.6986   39.5089   30.3499 H   0  0  0  0  0  0  0  0  0  0  0  0
   10.1109   38.2737   32.6630 H   0  0  0  0  0  0  0  0  0  0  0  0
   13.6783   37.4562   31.2271 H   0  0  0  0  0  0  0  0  0  0  0  0
    9.0020   37.3860   30.9348 H   0  0  0  0  0  0  0  0  0  0  0  0
   11.2807   36.3053   32.4921 H   0  0  0  0  0  0  0  0  0  0  0  0
   11.8818   36.9600   29.7584 H   0  0  0  0  0  0  0  0  0  0  0  0
   12.3303   38.3538   34.7445 H   0  0  0  0  0  0  0  0  0  0  0  0
   16.7564   34.1783   32.4624 H   0  0  0  0  0  0  0  0  0  0  0  0
   16.6348   34.5301   37.1418 H   0  0  0  0  0  0  0  0  0  0  0  0
   15.3532   35.7359   37.5142 H   0  0  0  0  0  0  0  0  0  0  0  0
  1  2  2  0
  1  3  1  0
  3  4  1  0
  4  5  1  0
  6  1  1  0
  7  6  1  0
  6  8  1  0
  8  9  1  0
  9 10  2  0
 11  9  1  0
 10 12  1  0
 13 11  2  0
 12 14  2  0
 14 13  1  0
 14 15  1  0
 15 16  1  0
 16 17  1  0
 16 18  1  0
 18 19  2  0
 20 18  1  0
 19 21  1  0
 22 20  2  0
 20 23  1  0
 21 24  1  0
 21 25  2  0
 25 22  1  0
 23 26  1  0
 23 27  2  0
 24 28  1  0
 25 29  1  0
 28 29  1  0
  4 30  2  0
  4 31  1  0
 32 31  1  0
 32 33  1  0
 33 34  1  0
 33 35  1  0
 34 36  1  0
 35 37  1  0
 35 38  1  0
 38 36  1  0
 36 39  1  0
 38 40  1  0
 41 39  1  0
 42 39  1  0
 43 41  2  0
 41 44  1  0
 45 42  2  0
 46 43  1  0
 44 47  2  0
 44 45  1  0
 48 46  2  0
 48 47  1  0
 47 49  1  0
  6 50  1  1
  7 51  1  0
  7 52  1  0
  8 53  1  0
  8 54  1  0
 10 55  1  0
 11 56  1  0
 12 57  1  0
 13 58  1  0
 16 59  1  1
 17 60  1  0
 17 61  1  0
 17 62  1  0
 19 63  1  0
 22 64  1  0
 28 65  1  0
 28 66  1  0
 32 67  1  0
 32 68  1  0
 33 69  1  0
 35 70  1  0
 36 71  1  0
 37 72  1  0
 38 73  1  0
 40 74  1  0
 42 75  1  0
 46 76  1  0
 49 77  1  0
 49 78  1  0
M  CHG  3   5  -1  23   1  26  -1
M  END
>  <EmbedRMS>  (287) 
0.0815524457236

$$$$

     RDKit          3D

 78 83  0  0  0  0  0  0  0  0999 V2000
   10.2839   43.7626   33.8271 C   0  0  0  0  0  0  0  0  0  0  0  0
   11.4103   43.5866   34.3764 O   0  0  0  0  0  0  0  0  0  0  0  0
    9.3634   42.7234   33.7348 O   0  0  0  0  0  0  0  0  0  0  0  0
    9.8898   41.2248   34.2940 P   0  0  0  0  0  0  0  0  0  0  0  0
   10.3722   41.4547   35.8837 O   0  0  0  0  0  0  0  0  0  0  0  0
    9.9547   45.0699   33.2058 C   0  0  1  0  0  0  0  0  0  0  0  0
   11.0194   46.0482   33.4564 N   0  0  0  0  0  0  0  0  0  0  0  0
    9.7500   44.8510   31.6916 C   0  0  0  0  0  0  0  0  0  0  0  0
    8.7939   45.8418   31.0859 C   0  0  0  0  0  0  0  0  0  0  0  0
    7.4057   45.6014   31.1013 C   0  0  0  0  0  0  0  0  0  0  0  0
    9.2834   46.9910   30.4448 C   0  0  0  0  0  0  0  0  0  0  0  0
    6.5254   46.5032   30.4868 C   0  0  0  0  0  0  0  0  0  0  0  0
    8.4016   47.8917   29.8357 C   0  0  0  0  0  0  0  0  0  0  0  0
    7.0217   47.6455   29.8442 C   0  0  0  0  0  0  0  0  0  0  0  0
    6.1438   48.5452   29.2324 O   0  0  0  0  0  0  0  0  0  0  0  0
    5.7772   48.4767   27.8505 C   0  0  2  0  0  0  0  0  0  0  0  0
    4.8865   47.2569   27.5733 C   0  0  0  0  0  0  0  0  0  0  0  0
    7.0031   48.5580   26.9462 C   0  0  0  0  0  0  0  0  0  0  0  0
    7.7349   47.3813   26.6380 C   0  0  0  0  0  0  0  0  0  0  0  0
    7.4423   49.8112   26.4013 C   0  0  0  0  0  0  0  0  0  0  0  0
    8.8185   47.4777   25.7757 C   0  0  0  0  0  0  0  0  0  0  0  0
    8.5408   49.8430   25.5116 C   0  0  0  0  0  0  0  0  0  0  0  0
    6.8169   51.0513   26.7694 N   0  0  0  0  0  0  0  0  0  0  0  0
    9.6585   46.4721   25.3373 O   0  0  0  0  0  0  0  0  0  0  0  0
    9.1996   48.6545   25.2301 C   0  0  0  0  0  0  0  0  0  0  0  0
    6.5597   51.3283   28.0923 O   0  0  0  0  0  0  0  0  0  0  0  0
    6.7070   51.9687   25.9299 O   0  0  0  0  0  0  0  0  0  0  0  0
   10.6283   47.0577   24.4582 C   0  0  0  0  0  0  0  0  0  0  0  0
   10.2990   48.4529   24.4179 O   0  0  0  0  0  0  0  0  0  0  0  0
    8.8120   40.1830   34.2122 O   0  0  0  0  0  0  0  0  0  0  0  0
   11.2415   40.7932   33.3700 O   0  0  0  0  0  0  0  0  0  0  0  0
   10.9187   40.6909   31.9972 C   0  0  0  0  0  0  0  0  0  0  0  0
   11.5172   39.3814   31.4408 C   0  0  0  0  0  0  0  0  0  0  0  0
   12.7493   39.0855   32.0728 O   0  0  0  0  0  0  0  0  0  0  0  0
   10.6023   38.1907   31.6665 C   0  0  0  0  0  0  0  0  0  0  0  0
   12.9320   37.6781   32.0281 C   0  0  0  0  0  0  0  0  0  0  0  0
    9.6393   38.0798   30.6451 O   0  0  0  0  0  0  0  0  0  0  0  0
   11.5715   37.0165   31.7056 C   0  0  0  0  0  0  0  0  0  0  0  0
   13.4847   37.2121   33.3235 N   0  0  0  0  0  0  0  0  0  0  0  0
   11.6186   36.3383   30.4694 O   0  0  0  0  0  0  0  0  0  0  0  0
   14.4801   36.3321   33.5724 C   0  0  0  0  0  0  0  0  0  0  0  0
   13.1137   37.6275   34.5688 C   0  0  0  0  0  0  0  0  0  0  0  0
   15.2073   35.6153   32.6738 N   0  0  0  0  0  0  0  0  0  0  0  0
   14.6759   36.2307   34.9179 C   0  0  0  0  0  0  0  0  0  0  0  0
   13.8216   37.0451   35.5781 N   0  0  0  0  0  0  0  0  0  0  0  0
   16.1641   34.7601   33.1546 C   0  0  0  0  0  0  0  0  0  0  0  0
   15.6525   35.3507   35.4129 C   0  0  0  0  0  0  0  0  0  0  0  0
   16.3794   34.6316   34.5041 N   0  0  0  0  0  0  0  0  0  0  0  0
   15.8998   35.1934   36.8088 N   0  0  0  0  0  0  0  0  0  0  0  0
    9.0097   45.4347   33.6665 H   0  0  0  0  0  0  0  0  0  0  0  0
   11.9345   45.6936   33.0921 H   0  0  0  0  0  0  0  0  0  0  0  0
   11.1130   46.1992   34.4877 H   0  0  0  0  0  0  0  0  0  0  0  0
    9.3507   43.8346   31.4754 H   0  0  0  0  0  0  0  0  0  0  0  0
   10.7301   44.8928   31.1665 H   0  0  0  0  0  0  0  0  0  0  0  0
    7.0091   44.7174   31.5854 H   0  0  0  0  0  0  0  0  0  0  0  0
   10.3473   47.1916   30.4163 H   0  0  0  0  0  0  0  0  0  0  0  0
    5.4602   46.3122   30.5074 H   0  0  0  0  0  0  0  0  0  0  0  0
    8.7908   48.7770   29.3490 H   0  0  0  0  0  0  0  0  0  0  0  0
    5.1237   49.3485   27.6414 H   0  0  0  0  0  0  0  0  0  0  0  0
    5.3783   46.3100   27.8732 H   0  0  0  0  0  0  0  0  0  0  0  0
    3.9432   47.3470   28.1528 H   0  0  0  0  0  0  0  0  0  0  0  0
    4.6312   47.2076   26.4933 H   0  0  0  0  0  0  0  0  0  0  0  0
    7.4782   46.4179   27.0547 H   0  0  0  0  0  0  0  0  0  0  0  0
    8.8917   50.7724   25.0817 H   0  0  0  0  0  0  0  0  0  0  0  0
   10.5443   46.6147   23.4436 H   0  0  0  0  0  0  0  0  0  0  0  0
   11.6509   46.9170   24.8667 H   0  0  0  0  0  0  0  0  0  0  0  0
   11.3972   41.5458   31.4734 H   0  0  0  0  0  0  0  0  0  0  0  0
    9.8301   40.7409   31.7611 H   0  0  0  0  0  0  0  0  0  0  0  0
   11.6975   39.5067   30.3481 H   0  0  0  0  0  0  0  0  0  0  0  0
   10.1076   38.2646   32.6645 H   0  0  0  0  0  0  0  0  0  0  0  0
   13.6622   37.4468   31.2209 H   0  0  0  0  0  0  0  0  0  0  0  0
    8.8972   38.6939   30.8834 H   0  0  0  0  0  0  0  0  0  0  0  0
   11.2806   36.3073   32.5170 H   0  0  0  0  0  0  0  0  0  0  0  0
   10.8491   35.7110   30.4585 H   0  0  0  0  0  0  0  0  0  0  0  0
   12.3291   38.3524   34.7445 H   0  0  0  0  0  0  0  0  0  0  0  0
   16.7560   34.1780   32.4619 H   0  0  0  0  0  0  0  0  0  0  0  0
   16.6344   34.5301   37.1415 H   0  0  0  0  0  0  0  0  0  0  0  0
   15.3531   35.7363   37.5135 H   0  0  0  0  0  0  0  0  0  0  0  0
  1  2  2  0
  1  3  1  0
  3  4  1  0
  4  5  1  0
  6  1  1  0
  7  6  1  0
  6  8  1  0
  8  9  1  0
  9 10  2  0
 11  9  1  0
 10 12  1  0
 13 11  2  0
 12 14  2  0
 14 13  1  0
 14 15  1  0
 15 16  1  0
 16 17  1  0
 16 18  1  0
 18 19  2  0
 20 18  1  0
 19 21  1  0
 22 20  2  0
 20 23  1  0
 21 24  1  0
 21 25  2  0
 25 22  1  0
 23 26  1  0
 23 27  2  0
 24 28  1  0
 25 29  1  0
 28 29  1  0
  4 30  2  0
  4 31  1  0
 32 31  1  0
 32 33  1  0
 33 34  1  0
 33 35  1  0
 34 36  1  0
 35 37  1  0
 35 38  1  0
 38 36  1  0
 36 39  1  0
 38 40  1  0
 41 39  1  0
 42 39  1  0
 43 41  2  0
 41 44  1  0
 45 42  2  0
 46 43  1  0
 44 47  2  0
 44 45  1  0
 48 46  2  0
 48 47  1  0
 47 49  1  0
  6 50  1  1
  7 51  1  0
  7 52  1  0
  8 53  1  0
  8 54  1  0
 10 55  1  0
 11 56  1  0
 12 57  1  0
 13 58  1  0
 16 59  1  6
 17 60  1  0
 17 61  1  0
 17 62  1  0
 19 63  1  0
 22 64  1  0
 28 65  1  0
 28 66  1  0
 32 67  1  0
 32 68  1  0
 33 69  1  0
 35 70  1  0
 36 71  1  0
 37 72  1  0
 38 73  1  0
 40 74  1  0
 42 75  1  0
 46 76  1  0
 49 77  1  0
 49 78  1  0
M  CHG  3   5  -1  23   1  26  -1
M  END
>  <EmbedRMS>  (288) 
0.0839601773997

$$$$

     RDKit          3D

 78 83  0  0  0  0  0  0  0  0999 V2000
   10.2834   43.7663   33.8256 C   0  0  0  0  0  0  0  0  0  0  0  0
   11.4102   43.5930   34.3752 O   0  0  0  0  0  0  0  0  0  0  0  0
    9.3635   42.7257   33.7352 O   0  0  0  0  0  0  0  0  0  0  0  0
    9.8899   41.2270   34.2947 P   0  0  0  0  0  0  0  0  0  0  0  0
   10.3732   41.4563   35.8841 O   0  0  0  0  0  0  0  0  0  0  0  0
    9.9548   45.0695   33.2034 C   0  0  1  0  0  0  0  0  0  0  0  0
   11.0274   46.0322   33.4758 N   0  0  0  0  0  0  0  0  0  0  0  0
    9.7473   44.8482   31.6874 C   0  0  0  0  0  0  0  0  0  0  0  0
    8.7927   45.8406   31.0838 C   0  0  0  0  0  0  0  0  0  0  0  0
    7.4061   45.6013   31.0996 C   0  0  0  0  0  0  0  0  0  0  0  0
    9.2817   46.9879   30.4425 C   0  0  0  0  0  0  0  0  0  0  0  0
    6.5241   46.5015   30.4860 C   0  0  0  0  0  0  0  0  0  0  0  0
    8.4003   47.8885   29.8338 C   0  0  0  0  0  0  0  0  0  0  0  0
    7.0184   47.6560   29.8436 C   0  0  0  0  0  0  0  0  0  0  0  0
    6.1873   48.5984   29.2153 O   0  0  0  0  0  0  0  0  0  0  0  0
    4.7836   48.4649   28.9868 C   0  0  2  0  0  0  0  0  0  0  0  0
    4.4964   47.4262   27.8938 C   0  0  0  0  0  0  0  0  0  0  0  0
    4.1936   49.8200   28.6285 C   0  0  0  0  0  0  0  0  0  0  0  0
    3.1863   50.3496   29.4740 C   0  0  0  0  0  0  0  0  0  0  0  0
    4.5783   50.5602   27.4574 C   0  0  0  0  0  0  0  0  0  0  0  0
    2.5942   51.5579   29.1313 C   0  0  0  0  0  0  0  0  0  0  0  0
    3.9285   51.7779   27.1534 C   0  0  0  0  0  0  0  0  0  0  0  0
    5.6016   50.0958   26.5662 N   0  0  0  0  0  0  0  0  0  0  0  0
    1.6008   52.2475   29.7998 O   0  0  0  0  0  0  0  0  0  0  0  0
    2.9473   52.2402   28.0188 C   0  0  0  0  0  0  0  0  0  0  0  0
    6.8815   49.9011   27.0281 O   0  0  0  0  0  0  0  0  0  0  0  0
    5.4049   50.1218   25.3338 O   0  0  0  0  0  0  0  0  0  0  0  0
    1.3139   53.4404   29.0573 C   0  0  0  0  0  0  0  0  0  0  0  0
    2.1961   53.3962   27.9275 O   0  0  0  0  0  0  0  0  0  0  0  0
    8.8120   40.1851   34.2133 O   0  0  0  0  0  0  0  0  0  0  0  0
   11.2403   40.7947   33.3700 O   0  0  0  0  0  0  0  0  0  0  0  0
   10.9144   40.6914   31.9982 C   0  0  0  0  0  0  0  0  0  0  0  0
   11.5270   39.3912   31.4385 C   0  0  0  0  0  0  0  0  0  0  0  0
   12.7520   39.0911   32.0836 O   0  0  0  0  0  0  0  0  0  0  0  0
   10.6113   38.1932   31.6451 C   0  0  0  0  0  0  0  0  0  0  0  0
   12.9413   37.6838   32.0297 C   0  0  0  0  0  0  0  0  0  0  0  0
    9.6064   38.0878   30.6599 O   0  0  0  0  0  0  0  0  0  0  0  0
   11.5822   37.0197   31.6877 C   0  0  0  0  0  0  0  0  0  0  0  0
   13.4840   37.2104   33.3254 N   0  0  0  0  0  0  0  0  0  0  0  0
   11.6179   36.3072   30.4690 O   0  0  0  0  0  0  0  0  0  0  0  0
   14.4797   36.3309   33.5738 C   0  0  0  0  0  0  0  0  0  0  0  0
   13.1136   37.6269   34.5702 C   0  0  0  0  0  0  0  0  0  0  0  0
   15.2074   35.6152   32.6747 N   0  0  0  0  0  0  0  0  0  0  0  0
   14.6756   36.2298   34.9190 C   0  0  0  0  0  0  0  0  0  0  0  0
   13.8217   37.0445   35.5793 N   0  0  0  0  0  0  0  0  0  0  0  0
   16.1643   34.7603   33.1551 C   0  0  0  0  0  0  0  0  0  0  0  0
   15.6528   35.3503   35.4136 C   0  0  0  0  0  0  0  0  0  0  0  0
   16.3798   34.6315   34.5046 N   0  0  0  0  0  0  0  0  0  0  0  0
   15.9004   35.1930   36.8094 N   0  0  0  0  0  0  0  0  0  0  0  0
    9.0121   45.4318   33.6709 H   0  0  0  0  0  0  0  0  0  0  0  0
   11.8909   45.7659   32.9475 H   0  0  0  0  0  0  0  0  0  0  0  0
   10.7262   46.9688   33.1213 H   0  0  0  0  0  0  0  0  0  0  0  0
    9.3428   43.8329   31.4757 H   0  0  0  0  0  0  0  0  0  0  0  0
   10.7238   44.8822   31.1556 H   0  0  0  0  0  0  0  0  0  0  0  0
    7.0106   44.7172   31.5846 H   0  0  0  0  0  0  0  0  0  0  0  0
   10.3459   47.1868   30.4113 H   0  0  0  0  0  0  0  0  0  0  0  0
    5.4666   46.2873   30.5278 H   0  0  0  0  0  0  0  0  0  0  0  0
    8.7940   48.7709   29.3453 H   0  0  0  0  0  0  0  0  0  0  0  0
    4.3036   48.1079   29.9236 H   0  0  0  0  0  0  0  0  0  0  0  0
    3.4155   47.4295   27.6369 H   0  0  0  0  0  0  0  0  0  0  0  0
    5.0877   47.6276   26.9786 H   0  0  0  0  0  0  0  0  0  0  0  0
    4.7600   46.4090   28.2481 H   0  0  0  0  0  0  0  0  0  0  0  0
    2.8617   49.8314   30.3675 H   0  0  0  0  0  0  0  0  0  0  0  0
    4.1940   52.3524   26.2751 H   0  0  0  0  0  0  0  0  0  0  0  0
    0.2567   53.4369   28.7183 H   0  0  0  0  0  0  0  0  0  0  0  0
    1.5270   54.3379   29.6750 H   0  0  0  0  0  0  0  0  0  0  0  0
   11.3776   41.5549   31.4744 H   0  0  0  0  0  0  0  0  0  0  0  0
    9.8234   40.7201   31.7654 H   0  0  0  0  0  0  0  0  0  0  0  0
   11.7311   39.5362   30.3532 H   0  0  0  0  0  0  0  0  0  0  0  0
   10.1203   38.2696   32.6410 H   0  0  0  0  0  0  0  0  0  0  0  0
   13.6850   37.4639   31.2321 H   0  0  0  0  0  0  0  0  0  0  0  0
   10.0251   38.1793   29.7654 H   0  0  0  0  0  0  0  0  0  0  0  0
   11.2757   36.3135   32.4908 H   0  0  0  0  0  0  0  0  0  0  0  0
   11.9838   36.9111   29.7708 H   0  0  0  0  0  0  0  0  0  0  0  0
   12.3307   38.3536   34.7457 H   0  0  0  0  0  0  0  0  0  0  0  0
   16.7566   34.1787   32.4623 H   0  0  0  0  0  0  0  0  0  0  0  0
   16.6353   34.5301   37.1419 H   0  0  0  0  0  0  0  0  0  0  0  0
   15.3535   35.7355   37.5144 H   0  0  0  0  0  0  0  0  0  0  0  0
  1  2  2  0
  1  3  1  0
  3  4  1  0
  4  5  1  0
  6  1  1  0
  7  6  1  0
  6  8  1  0
  8  9  1  0
  9 10  2  0
 11  9  1  0
 10 12  1  0
 13 11  2  0
 12 14  2  0
 14 13  1  0
 14 15  1  0
 15 16  1  0
 16 17  1  0
 16 18  1  0
 18 19  2  0
 20 18  1  0
 19 21  1  0
 22 20  2  0
 20 23  1  0
 21 24  1  0
 21 25  2  0
 25 22  1  0
 23 26  1  0
 23 27  2  0
 24 28  1  0
 25 29  1  0
 28 29  1  0
  4 30  2  0
  4 31  1  0
 32 31  1  0
 32 33  1  0
 33 34  1  0
 33 35  1  0
 34 36  1  0
 35 37  1  0
 35 38  1  0
 38 36  1  0
 36 39  1  0
 38 40  1  0
 41 39  1  0
 42 39  1  0
 43 41  2  0
 41 44  1  0
 45 42  2  0
 46 43  1  0
 44 47  2  0
 44 45  1  0
 48 46  2  0
 48 47  1  0
 47 49  1  0
  6 50  1  1
  7 51  1  0
  7 52  1  0
  8 53  1  0
  8 54  1  0
 10 55  1  0
 11 56  1  0
 12 57  1  0
 13 58  1  0
 16 59  1  1
 17 60  1  0
 17 61  1  0
 17 62  1  0
 19 63  1  0
 22 64  1  0
 28 65  1  0
 28 66  1  0
 32 67  1  0
 32 68  1  0
 33 69  1  0
 35 70  1  0
 36 71  1  0
 37 72  1  0
 38 73  1  0
 40 74  1  0
 42 75  1  0
 46 76  1  0
 49 77  1  0
 49 78  1  0
M  CHG  3   5  -1  23   1  26  -1
M  END
>  <EmbedRMS>  (289) 
0.0808201863212

$$$$

     RDKit          3D

 78 83  0  0  0  0  0  0  0  0999 V2000
   10.2839   43.7625   33.8275 C   0  0  0  0  0  0  0  0  0  0  0  0
   11.4104   43.5864   34.3767 O   0  0  0  0  0  0  0  0  0  0  0  0
    9.3634   42.7233   33.7352 O   0  0  0  0  0  0  0  0  0  0  0  0
    9.8899   41.2246   34.2940 P   0  0  0  0  0  0  0  0  0  0  0  0
   10.3724   41.4544   35.8837 O   0  0  0  0  0  0  0  0  0  0  0  0
    9.9548   45.0698   33.2063 C   0  0  1  0  0  0  0  0  0  0  0  0
   11.0197   46.0480   33.4567 N   0  0  0  0  0  0  0  0  0  0  0  0
    9.7502   44.8506   31.6922 C   0  0  0  0  0  0  0  0  0  0  0  0
    8.7943   45.8415   31.0866 C   0  0  0  0  0  0  0  0  0  0  0  0
    7.4075   45.6013   31.1006 C   0  0  0  0  0  0  0  0  0  0  0  0
    9.2830   46.9891   30.4452 C   0  0  0  0  0  0  0  0  0  0  0  0
    6.5282   46.5025   30.4853 C   0  0  0  0  0  0  0  0  0  0  0  0
    8.4034   47.8903   29.8335 C   0  0  0  0  0  0  0  0  0  0  0  0
    7.0147   47.6509   29.8452 C   0  0  0  0  0  0  0  0  0  0  0  0
    6.0870   48.5158   29.2412 O   0  0  0  0  0  0  0  0  0  0  0  0
    6.4100   49.6651   28.4576 C   0  0  2  0  0  0  0  0  0  0  0  0
    5.1501   50.5040   28.2412 C   0  0  0  0  0  0  0  0  0  0  0  0
    7.0392   49.2725   27.1286 C   0  0  0  0  0  0  0  0  0  0  0  0
    8.2937   49.8389   26.7937 C   0  0  0  0  0  0  0  0  0  0  0  0
    6.3927   48.4051   26.1847 C   0  0  0  0  0  0  0  0  0  0  0  0
    8.8568   49.5301   25.5623 C   0  0  0  0  0  0  0  0  0  0  0  0
    7.0071   48.1383   24.9411 C   0  0  0  0  0  0  0  0  0  0  0  0
    5.1192   47.8079   26.4564 N   0  0  0  0  0  0  0  0  0  0  0  0
   10.0587   49.9617   25.0352 O   0  0  0  0  0  0  0  0  0  0  0  0
    8.2402   48.7169   24.6747 C   0  0  0  0  0  0  0  0  0  0  0  0
    5.0073   46.8568   27.4423 O   0  0  0  0  0  0  0  0  0  0  0  0
    4.1974   47.9214   25.6227 O   0  0  0  0  0  0  0  0  0  0  0  0
   10.2052   49.3792   23.7328 C   0  0  0  0  0  0  0  0  0  0  0  0
    9.0215   48.5922   23.5421 O   0  0  0  0  0  0  0  0  0  0  0  0
    8.8119   40.1831   34.2120 O   0  0  0  0  0  0  0  0  0  0  0  0
   11.2416   40.7932   33.3699 O   0  0  0  0  0  0  0  0  0  0  0  0
   10.9187   40.6909   31.9972 C   0  0  0  0  0  0  0  0  0  0  0  0
   11.5172   39.3814   31.4407 C   0  0  0  0  0  0  0  0  0  0  0  0
   12.7493   39.0855   32.0727 O   0  0  0  0  0  0  0  0  0  0  0  0
   10.6023   38.1907   31.6665 C   0  0  0  0  0  0  0  0  0  0  0  0
   12.9319   37.6781   32.0281 C   0  0  0  0  0  0  0  0  0  0  0  0
    9.6392   38.0797   30.6452 O   0  0  0  0  0  0  0  0  0  0  0  0
   11.5715   37.0165   31.7056 C   0  0  0  0  0  0  0  0  0  0  0  0
   13.4847   37.2121   33.3235 N   0  0  0  0  0  0  0  0  0  0  0  0
   11.6187   36.3383   30.4694 O   0  0  0  0  0  0  0  0  0  0  0  0
   14.4801   36.3321   33.5724 C   0  0  0  0  0  0  0  0  0  0  0  0
   13.1137   37.6275   34.5687 C   0  0  0  0  0  0  0  0  0  0  0  0
   15.2073   35.6153   32.6738 N   0  0  0  0  0  0  0  0  0  0  0  0
   14.6759   36.2308   34.9179 C   0  0  0  0  0  0  0  0  0  0  0  0
   13.8216   37.0452   35.5780 N   0  0  0  0  0  0  0  0  0  0  0  0
   16.1640   34.7601   33.1546 C   0  0  0  0  0  0  0  0  0  0  0  0
   15.6526   35.3508   35.4129 C   0  0  0  0  0  0  0  0  0  0  0  0
   16.3794   34.6317   34.5041 N   0  0  0  0  0  0  0  0  0  0  0  0
   15.8999   35.1934   36.8088 N   0  0  0  0  0  0  0  0  0  0  0  0
    9.0098   45.4347   33.6670 H   0  0  0  0  0  0  0  0  0  0  0  0
   11.1134   46.1992   34.4880 H   0  0  0  0  0  0  0  0  0  0  0  0
   11.9348   45.6933   33.0923 H   0  0  0  0  0  0  0  0  0  0  0  0
    9.3510   43.8341   31.4761 H   0  0  0  0  0  0  0  0  0  0  0  0
   10.7304   44.8921   31.1674 H   0  0  0  0  0  0  0  0  0  0  0  0
    7.0108   44.7164   31.5829 H   0  0  0  0  0  0  0  0  0  0  0  0
   10.3472   47.1892   30.4186 H   0  0  0  0  0  0  0  0  0  0  0  0
    5.4639   46.3049   30.5023 H   0  0  0  0  0  0  0  0  0  0  0  0
    8.8173   48.7678   29.3608 H   0  0  0  0  0  0  0  0  0  0  0  0
    7.1056   50.3060   29.0439 H   0  0  0  0  0  0  0  0  0  0  0  0
    4.7715   50.8659   29.2207 H   0  0  0  0  0  0  0  0  0  0  0  0
    5.3808   51.3866   27.6068 H   0  0  0  0  0  0  0  0  0  0  0  0
    4.3465   49.9109   27.7598 H   0  0  0  0  0  0  0  0  0  0  0  0
    8.8131   50.5086   27.4673 H   0  0  0  0  0  0  0  0  0  0  0  0
    6.5386   47.4906   24.2111 H   0  0  0  0  0  0  0  0  0  0  0  0
   10.2649   50.1748   22.9608 H   0  0  0  0  0  0  0  0  0  0  0  0
   11.1057   48.7307   23.7012 H   0  0  0  0  0  0  0  0  0  0  0  0
    9.8301   40.7411   31.7610 H   0  0  0  0  0  0  0  0  0  0  0  0
   11.3973   41.5459   31.4735 H   0  0  0  0  0  0  0  0  0  0  0  0
   11.6974   39.5067   30.3480 H   0  0  0  0  0  0  0  0  0  0  0  0
   10.1077   38.2647   32.6645 H   0  0  0  0  0  0  0  0  0  0  0  0
   13.6621   37.4467   31.2208 H   0  0  0  0  0  0  0  0  0  0  0  0
    8.8975   38.6944   30.8831 H   0  0  0  0  0  0  0  0  0  0  0  0
   11.2806   36.3073   32.5170 H   0  0  0  0  0  0  0  0  0  0  0  0
   10.8492   35.7110   30.4586 H   0  0  0  0  0  0  0  0  0  0  0  0
   12.3290   38.3523   34.7444 H   0  0  0  0  0  0  0  0  0  0  0  0
   16.7559   34.1780   32.4620 H   0  0  0  0  0  0  0  0  0  0  0  0
   15.3531   35.7362   37.5137 H   0  0  0  0  0  0  0  0  0  0  0  0
   16.6344   34.5301   37.1414 H   0  0  0  0  0  0  0  0  0  0  0  0
  1  2  2  0
  1  3  1  0
  3  4  1  0
  4  5  1  0
  6  1  1  0
  7  6  1  0
  6  8  1  0
  8  9  1  0
  9 10  2  0
 11  9  1  0
 10 12  1  0
 13 11  2  0
 12 14  2  0
 14 13  1  0
 14 15  1  0
 15 16  1  0
 16 17  1  0
 16 18  1  0
 18 19  2  0
 20 18  1  0
 19 21  1  0
 22 20  2  0
 20 23  1  0
 21 24  1  0
 21 25  2  0
 25 22  1  0
 23 26  1  0
 23 27  2  0
 24 28  1  0
 25 29  1  0
 28 29  1  0
  4 30  2  0
  4 31  1  0
 32 31  1  0
 32 33  1  0
 33 34  1  0
 33 35  1  0
 34 36  1  0
 35 37  1  0
 35 38  1  0
 38 36  1  0
 36 39  1  0
 38 40  1  0
 41 39  1  0
 42 39  1  0
 43 41  2  0
 41 44  1  0
 45 42  2  0
 46 43  1  0
 44 47  2  0
 44 45  1  0
 48 46  2  0
 48 47  1  0
 47 49  1  0
  6 50  1  1
  7 51  1  0
  7 52  1  0
  8 53  1  0
  8 54  1  0
 10 55  1  0
 11 56  1  0
 12 57  1  0
 13 58  1  0
 16 59  1  1
 17 60  1  0
 17 61  1  0
 17 62  1  0
 19 63  1  0
 22 64  1  0
 28 65  1  0
 28 66  1  0
 32 67  1  0
 32 68  1  0
 33 69  1  0
 35 70  1  0
 36 71  1  0
 37 72  1  0
 38 73  1  0
 40 74  1  0
 42 75  1  0
 46 76  1  0
 49 77  1  0
 49 78  1  0
M  CHG  3   5  -1  23   1  26  -1
M  END
>  <EmbedRMS>  (290) 
0.083846214552

$$$$

     RDKit          3D

 78 83  0  0  0  0  0  0  0  0999 V2000
   10.2839   43.7626   33.8278 C   0  0  0  0  0  0  0  0  0  0  0  0
   11.4104   43.5863   34.3768 O   0  0  0  0  0  0  0  0  0  0  0  0
    9.3631   42.7236   33.7357 O   0  0  0  0  0  0  0  0  0  0  0  0
    9.8895   41.2249   34.2948 P   0  0  0  0  0  0  0  0  0  0  0  0
   10.3720   41.4546   35.8844 O   0  0  0  0  0  0  0  0  0  0  0  0
    9.9549   45.0699   33.2066 C   0  0  1  0  0  0  0  0  0  0  0  0
   11.0198   46.0481   33.4569 N   0  0  0  0  0  0  0  0  0  0  0  0
    9.7502   44.8506   31.6926 C   0  0  0  0  0  0  0  0  0  0  0  0
    8.7942   45.8414   31.0873 C   0  0  0  0  0  0  0  0  0  0  0  0
    7.4082   45.6007   31.0997 C   0  0  0  0  0  0  0  0  0  0  0  0
    9.2822   46.9880   30.4449 C   0  0  0  0  0  0  0  0  0  0  0  0
    6.5300   46.5020   30.4835 C   0  0  0  0  0  0  0  0  0  0  0  0
    8.4027   47.8888   29.8323 C   0  0  0  0  0  0  0  0  0  0  0  0
    7.0135   47.6547   29.8474 C   0  0  0  0  0  0  0  0  0  0  0  0
    6.0682   48.5164   29.2611 O   0  0  0  0  0  0  0  0  0  0  0  0
    6.2866   49.7746   28.6093 C   0  0  2  0  0  0  0  0  0  0  0  0
    6.9295   49.5616   27.2299 C   0  0  0  0  0  0  0  0  0  0  0  0
    6.9644   50.7959   29.5248 C   0  0  0  0  0  0  0  0  0  0  0  0
    8.2592   51.2995   29.2200 C   0  0  0  0  0  0  0  0  0  0  0  0
    6.2679   51.3340   30.6638 C   0  0  0  0  0  0  0  0  0  0  0  0
    8.8170   52.2608   30.0512 C   0  0  0  0  0  0  0  0  0  0  0  0
    6.8853   52.3225   31.4630 C   0  0  0  0  0  0  0  0  0  0  0  0
    4.9223   50.9462   30.9891 N   0  0  0  0  0  0  0  0  0  0  0  0
   10.0538   52.8686   29.9505 O   0  0  0  0  0  0  0  0  0  0  0  0
    8.1604   52.7492   31.1257 C   0  0  0  0  0  0  0  0  0  0  0  0
    4.0382   51.8901   31.4588 O   0  0  0  0  0  0  0  0  0  0  0  0
    4.6076   49.7421   31.0655 O   0  0  0  0  0  0  0  0  0  0  0  0
   10.1799   53.7974   31.0357 C   0  0  0  0  0  0  0  0  0  0  0  0
    8.9476   53.6902   31.7611 O   0  0  0  0  0  0  0  0  0  0  0  0
    8.8117   40.1832   34.2125 O   0  0  0  0  0  0  0  0  0  0  0  0
   11.2411   40.7939   33.3709 O   0  0  0  0  0  0  0  0  0  0  0  0
   10.9179   40.6920   31.9985 C   0  0  0  0  0  0  0  0  0  0  0  0
   11.5175   39.3837   31.4422 C   0  0  0  0  0  0  0  0  0  0  0  0
   12.7508   39.0887   32.0751 O   0  0  0  0  0  0  0  0  0  0  0  0
   10.6028   38.1915   31.6658 C   0  0  0  0  0  0  0  0  0  0  0  0
   12.9385   37.6818   32.0278 C   0  0  0  0  0  0  0  0  0  0  0  0
    9.6371   38.0805   30.6470 O   0  0  0  0  0  0  0  0  0  0  0  0
   11.5780   37.0215   31.6934 C   0  0  0  0  0  0  0  0  0  0  0  0
   13.4844   37.2119   33.3241 N   0  0  0  0  0  0  0  0  0  0  0  0
   11.6095   36.3201   30.4678 O   0  0  0  0  0  0  0  0  0  0  0  0
   14.4797   36.3318   33.5730 C   0  0  0  0  0  0  0  0  0  0  0  0
   13.1136   37.6278   34.5691 C   0  0  0  0  0  0  0  0  0  0  0  0
   15.2073   35.6155   32.6742 N   0  0  0  0  0  0  0  0  0  0  0  0
   14.6754   36.2305   34.9184 C   0  0  0  0  0  0  0  0  0  0  0  0
   13.8213   37.0452   35.5785 N   0  0  0  0  0  0  0  0  0  0  0  0
   16.1640   34.7604   33.1549 C   0  0  0  0  0  0  0  0  0  0  0  0
   15.6524   35.3507   35.4132 C   0  0  0  0  0  0  0  0  0  0  0  0
   16.3794   34.6318   34.5044 N   0  0  0  0  0  0  0  0  0  0  0  0
   15.8999   35.1934   36.8091 N   0  0  0  0  0  0  0  0  0  0  0  0
    9.0099   45.4348   33.6672 H   0  0  0  0  0  0  0  0  0  0  0  0
   11.1134   46.1994   34.4882 H   0  0  0  0  0  0  0  0  0  0  0  0
   11.9348   45.6933   33.0925 H   0  0  0  0  0  0  0  0  0  0  0  0
   10.7305   44.8922   31.1677 H   0  0  0  0  0  0  0  0  0  0  0  0
    9.3511   43.8340   31.4765 H   0  0  0  0  0  0  0  0  0  0  0  0
    7.0111   44.7158   31.5816 H   0  0  0  0  0  0  0  0  0  0  0  0
   10.3467   47.1861   30.4147 H   0  0  0  0  0  0  0  0  0  0  0  0
    5.4656   46.3045   30.5033 H   0  0  0  0  0  0  0  0  0  0  0  0
    8.8257   48.7497   29.3498 H   0  0  0  0  0  0  0  0  0  0  0  0
    5.2812   50.1918   28.3831 H   0  0  0  0  0  0  0  0  0  0  0  0
    6.2747   48.9075   26.6158 H   0  0  0  0  0  0  0  0  0  0  0  0
    7.0357   50.5331   26.7016 H   0  0  0  0  0  0  0  0  0  0  0  0
    7.9204   49.0726   27.3009 H   0  0  0  0  0  0  0  0  0  0  0  0
    8.8297   50.9613   28.3671 H   0  0  0  0  0  0  0  0  0  0  0  0
    6.3835   52.7442   32.3244 H   0  0  0  0  0  0  0  0  0  0  0  0
   11.0336   53.5143   31.6864 H   0  0  0  0  0  0  0  0  0  0  0  0
   10.3064   54.8291   30.6455 H   0  0  0  0  0  0  0  0  0  0  0  0
    9.8292   40.7409   31.7625 H   0  0  0  0  0  0  0  0  0  0  0  0
   11.3955   41.5477   31.4751 H   0  0  0  0  0  0  0  0  0  0  0  0
   11.6981   39.5116   30.3500 H   0  0  0  0  0  0  0  0  0  0  0  0
   10.1117   38.2603   32.6660 H   0  0  0  0  0  0  0  0  0  0  0  0
   13.6767   37.4555   31.2267 H   0  0  0  0  0  0  0  0  0  0  0  0
    8.8961   38.6951   30.8872 H   0  0  0  0  0  0  0  0  0  0  0  0
   11.2792   36.3072   32.4922 H   0  0  0  0  0  0  0  0  0  0  0  0
   11.8828   36.9598   29.7588 H   0  0  0  0  0  0  0  0  0  0  0  0
   12.3300   38.3539   34.7446 H   0  0  0  0  0  0  0  0  0  0  0  0
   16.7562   34.1785   32.4622 H   0  0  0  0  0  0  0  0  0  0  0  0
   15.3531   35.7360   37.5140 H   0  0  0  0  0  0  0  0  0  0  0  0
   16.6347   34.5303   37.1416 H   0  0  0  0  0  0  0  0  0  0  0  0
  1  2  2  0
  1  3  1  0
  3  4  1  0
  4  5  1  0
  6  1  1  0
  7  6  1  0
  6  8  1  0
  8  9  1  0
  9 10  2  0
 11  9  1  0
 10 12  1  0
 13 11  2  0
 12 14  2  0
 14 13  1  0
 14 15  1  0
 15 16  1  0
 16 17  1  0
 16 18  1  0
 18 19  2  0
 20 18  1  0
 19 21  1  0
 22 20  2  0
 20 23  1  0
 21 24  1  0
 21 25  2  0
 25 22  1  0
 23 26  1  0
 23 27  2  0
 24 28  1  0
 25 29  1  0
 28 29  1  0
  4 30  2  0
  4 31  1  0
 32 31  1  0
 32 33  1  0
 33 34  1  0
 33 35  1  0
 34 36  1  0
 35 37  1  0
 35 38  1  0
 38 36  1  0
 36 39  1  0
 38 40  1  0
 41 39  1  0
 42 39  1  0
 43 41  2  0
 41 44  1  0
 45 42  2  0
 46 43  1  0
 44 47  2  0
 44 45  1  0
 48 46  2  0
 48 47  1  0
 47 49  1  0
  6 50  1  1
  7 51  1  0
  7 52  1  0
  8 53  1  0
  8 54  1  0
 10 55  1  0
 11 56  1  0
 12 57  1  0
 13 58  1  0
 16 59  1  6
 17 60  1  0
 17 61  1  0
 17 62  1  0
 19 63  1  0
 22 64  1  0
 28 65  1  0
 28 66  1  0
 32 67  1  0
 32 68  1  0
 33 69  1  0
 35 70  1  0
 36 71  1  0
 37 72  1  0
 38 73  1  0
 40 74  1  0
 42 75  1  0
 46 76  1  0
 49 77  1  0
 49 78  1  0
M  CHG  3   5  -1  23   1  26  -1
M  END
>  <EmbedRMS>  (291) 
0.082859424087

$$$$

     RDKit          3D

 78 83  0  0  0  0  0  0  0  0999 V2000
   10.2836   43.7626   33.8268 C   0  0  0  0  0  0  0  0  0  0  0  0
   11.4107   43.5858   34.3745 O   0  0  0  0  0  0  0  0  0  0  0  0
    9.3617   42.7243   33.7364 O   0  0  0  0  0  0  0  0  0  0  0  0
    9.8891   41.2252   34.2933 P   0  0  0  0  0  0  0  0  0  0  0  0
   10.3733   41.4550   35.8822 O   0  0  0  0  0  0  0  0  0  0  0  0
    9.9540   45.0694   33.2050 C   0  0  1  0  0  0  0  0  0  0  0  0
   11.0186   46.0486   33.4512 N   0  0  0  0  0  0  0  0  0  0  0  0
    9.7457   44.8483   31.6917 C   0  0  0  0  0  0  0  0  0  0  0  0
    8.7908   45.8400   31.0863 C   0  0  0  0  0  0  0  0  0  0  0  0
    7.4032   45.6025   31.0967 C   0  0  0  0  0  0  0  0  0  0  0  0
    9.2827   46.9872   30.4486 C   0  0  0  0  0  0  0  0  0  0  0  0
    6.5263   46.5064   30.4803 C   0  0  0  0  0  0  0  0  0  0  0  0
    8.4068   47.8922   29.8405 C   0  0  0  0  0  0  0  0  0  0  0  0
    7.0159   47.6580   29.8473 C   0  0  0  0  0  0  0  0  0  0  0  0
    6.0853   48.5395   29.2619 O   0  0  0  0  0  0  0  0  0  0  0  0
    6.3815   49.7092   28.4808 C   0  0  2  0  0  0  0  0  0  0  0  0
    7.0969   49.2798   27.1830 C   0  0  0  0  0  0  0  0  0  0  0  0
    7.0911   50.7819   29.3195 C   0  0  0  0  0  0  0  0  0  0  0  0
    6.9269   50.7508   30.7322 C   0  0  0  0  0  0  0  0  0  0  0  0
    7.8996   51.8261   28.7510 C   0  0  0  0  0  0  0  0  0  0  0  0
    7.6348   51.6552   31.5119 C   0  0  0  0  0  0  0  0  0  0  0  0
    8.6115   52.7095   29.5929 C   0  0  0  0  0  0  0  0  0  0  0  0
    7.9686   52.0439   27.3383 N   0  0  0  0  0  0  0  0  0  0  0  0
    7.6471   51.7743   32.8893 O   0  0  0  0  0  0  0  0  0  0  0  0
    8.4539   52.5837   30.9682 C   0  0  0  0  0  0  0  0  0  0  0  0
    6.8375   52.4607   26.6616 O   0  0  0  0  0  0  0  0  0  0  0  0
    9.0849   52.1218   26.7754 O   0  0  0  0  0  0  0  0  0  0  0  0
    8.5390   52.8431   33.2333 C   0  0  0  0  0  0  0  0  0  0  0  0
    9.0325   53.3327   31.9766 O   0  0  0  0  0  0  0  0  0  0  0  0
    8.8132   40.1814   34.2111 O   0  0  0  0  0  0  0  0  0  0  0  0
   11.2411   40.7962   33.3692 O   0  0  0  0  0  0  0  0  0  0  0  0
   10.9185   40.6934   31.9969 C   0  0  0  0  0  0  0  0  0  0  0  0
   11.5167   39.3818   31.4411 C   0  0  0  0  0  0  0  0  0  0  0  0
   12.7503   39.0855   32.0710 O   0  0  0  0  0  0  0  0  0  0  0  0
   10.6024   38.1906   31.6680 C   0  0  0  0  0  0  0  0  0  0  0  0
   12.9335   37.6775   32.0271 C   0  0  0  0  0  0  0  0  0  0  0  0
    9.6380   38.0791   30.6480 O   0  0  0  0  0  0  0  0  0  0  0  0
   11.5723   37.0163   31.7060 C   0  0  0  0  0  0  0  0  0  0  0  0
   13.4876   37.2124   33.3231 N   0  0  0  0  0  0  0  0  0  0  0  0
   11.6177   36.3384   30.4697 O   0  0  0  0  0  0  0  0  0  0  0  0
   14.4815   36.3311   33.5732 C   0  0  0  0  0  0  0  0  0  0  0  0
   13.1163   37.6273   34.5681 C   0  0  0  0  0  0  0  0  0  0  0  0
   15.2079   35.6137   32.6750 N   0  0  0  0  0  0  0  0  0  0  0  0
   14.6765   36.2294   34.9192 C   0  0  0  0  0  0  0  0  0  0  0  0
   13.8222   37.0439   35.5785 N   0  0  0  0  0  0  0  0  0  0  0  0
   16.1642   34.7588   33.1558 C   0  0  0  0  0  0  0  0  0  0  0  0
   15.6531   35.3493   35.4142 C   0  0  0  0  0  0  0  0  0  0  0  0
   16.3802   34.6309   34.5052 N   0  0  0  0  0  0  0  0  0  0  0  0
   15.9015   35.1897   36.8096 N   0  0  0  0  0  0  0  0  0  0  0  0
    9.0114   45.4340   33.6696 H   0  0  0  0  0  0  0  0  0  0  0  0
   11.9333   45.6917   33.0892 H   0  0  0  0  0  0  0  0  0  0  0  0
   11.1120   46.2027   34.4814 H   0  0  0  0  0  0  0  0  0  0  0  0
   10.7250   44.8898   31.1654 H   0  0  0  0  0  0  0  0  0  0  0  0
    9.3457   43.8316   31.4769 H   0  0  0  0  0  0  0  0  0  0  0  0
    7.0026   44.7202   31.5795 H   0  0  0  0  0  0  0  0  0  0  0  0
   10.3469   47.1870   30.4261 H   0  0  0  0  0  0  0  0  0  0  0  0
    5.4603   46.3158   30.5018 H   0  0  0  0  0  0  0  0  0  0  0  0
    8.8292   48.7768   29.3914 H   0  0  0  0  0  0  0  0  0  0  0  0
    5.4046   50.1414   28.1785 H   0  0  0  0  0  0  0  0  0  0  0  0
    6.7891   48.2498   26.8979 H   0  0  0  0  0  0  0  0  0  0  0  0
    6.8141   49.9375   26.3386 H   0  0  0  0  0  0  0  0  0  0  0  0
    8.1984   49.2919   27.2916 H   0  0  0  0  0  0  0  0  0  0  0  0
    6.2807   50.0334   31.2200 H   0  0  0  0  0  0  0  0  0  0  0  0
    9.2388   53.4914   29.1798 H   0  0  0  0  0  0  0  0  0  0  0  0
    9.3785   52.4557   33.8519 H   0  0  0  0  0  0  0  0  0  0  0  0
    7.9900   53.6473   33.7649 H   0  0  0  0  0  0  0  0  0  0  0  0
   11.3979   41.5487   31.4742 H   0  0  0  0  0  0  0  0  0  0  0  0
    9.8298   40.7496   31.7601 H   0  0  0  0  0  0  0  0  0  0  0  0
   11.6960   39.5063   30.3485 H   0  0  0  0  0  0  0  0  0  0  0  0
   10.1084   38.2643   32.6666 H   0  0  0  0  0  0  0  0  0  0  0  0
   13.6624   37.4440   31.2187 H   0  0  0  0  0  0  0  0  0  0  0  0
    8.8981   38.6960   30.8861 H   0  0  0  0  0  0  0  0  0  0  0  0
   11.2818   36.3067   32.5174 H   0  0  0  0  0  0  0  0  0  0  0  0
   10.8484   35.7109   30.4608 H   0  0  0  0  0  0  0  0  0  0  0  0
   12.3326   38.3524   34.7418 H   0  0  0  0  0  0  0  0  0  0  0  0
   16.7565   34.1784   32.4626 H   0  0  0  0  0  0  0  0  0  0  0  0
   15.3620   35.7333   37.5199 H   0  0  0  0  0  0  0  0  0  0  0  0
   16.6412   34.5280   37.1335 H   0  0  0  0  0  0  0  0  0  0  0  0
  1  2  2  0
  1  3  1  0
  3  4  1  0
  4  5  1  0
  6  1  1  0
  7  6  1  0
  6  8  1  0
  8  9  1  0
  9 10  2  0
 11  9  1  0
 10 12  1  0
 13 11  2  0
 12 14  2  0
 14 13  1  0
 14 15  1  0
 15 16  1  0
 16 17  1  0
 16 18  1  0
 18 19  2  0
 20 18  1  0
 19 21  1  0
 22 20  2  0
 20 23  1  0
 21 24  1  0
 21 25  2  0
 25 22  1  0
 23 26  1  0
 23 27  2  0
 24 28  1  0
 25 29  1  0
 28 29  1  0
  4 30  2  0
  4 31  1  0
 32 31  1  0
 32 33  1  0
 33 34  1  0
 33 35  1  0
 34 36  1  0
 35 37  1  0
 35 38  1  0
 38 36  1  0
 36 39  1  0
 38 40  1  0
 41 39  1  0
 42 39  1  0
 43 41  2  0
 41 44  1  0
 45 42  2  0
 46 43  1  0
 44 47  2  0
 44 45  1  0
 48 46  2  0
 48 47  1  0
 47 49  1  0
  6 50  1  1
  7 51  1  0
  7 52  1  0
  8 53  1  0
  8 54  1  0
 10 55  1  0
 11 56  1  0
 12 57  1  0
 13 58  1  0
 16 59  1  6
 17 60  1  0
 17 61  1  0
 17 62  1  0
 19 63  1  0
 22 64  1  0
 28 65  1  0
 28 66  1  0
 32 67  1  0
 32 68  1  0
 33 69  1  0
 35 70  1  0
 36 71  1  0
 37 72  1  0
 38 73  1  0
 40 74  1  0
 42 75  1  0
 46 76  1  0
 49 77  1  0
 49 78  1  0
M  CHG  3   5  -1  23   1  26  -1
M  END
>  <EmbedRMS>  (292) 
0.0835016704246

$$$$

     RDKit          3D

 78 83  0  0  0  0  0  0  0  0999 V2000
   10.2804   43.7664   33.8251 C   0  0  0  0  0  0  0  0  0  0  0  0
   11.4111   43.5918   34.3667 O   0  0  0  0  0  0  0  0  0  0  0  0
    9.3619   42.7249   33.7346 O   0  0  0  0  0  0  0  0  0  0  0  0
    9.8900   41.2266   34.2940 P   0  0  0  0  0  0  0  0  0  0  0  0
   10.3735   41.4566   35.8833 O   0  0  0  0  0  0  0  0  0  0  0  0
    9.9459   45.0736   33.2113 C   0  0  1  0  0  0  0  0  0  0  0  0
   11.0267   46.0291   33.4707 N   0  0  0  0  0  0  0  0  0  0  0  0
    9.7535   44.8539   31.6951 C   0  0  0  0  0  0  0  0  0  0  0  0
    8.7955   45.8412   31.0852 C   0  0  0  0  0  0  0  0  0  0  0  0
    7.4089   45.6004   31.1005 C   0  0  0  0  0  0  0  0  0  0  0  0
    9.2828   46.9874   30.4398 C   0  0  0  0  0  0  0  0  0  0  0  0
    6.5286   46.5005   30.4846 C   0  0  0  0  0  0  0  0  0  0  0  0
    8.4026   47.8888   29.8294 C   0  0  0  0  0  0  0  0  0  0  0  0
    7.0127   47.6525   29.8490 C   0  0  0  0  0  0  0  0  0  0  0  0
    6.0806   48.5163   29.2499 O   0  0  0  0  0  0  0  0  0  0  0  0
    6.3688   49.7875   28.6589 C   0  0  2  0  0  0  0  0  0  0  0  0
    6.6458   50.8268   29.7510 C   0  0  0  0  0  0  0  0  0  0  0  0
    5.1812   50.2282   27.8237 C   0  0  0  0  0  0  0  0  0  0  0  0
    3.8793   50.0619   28.3583 C   0  0  0  0  0  0  0  0  0  0  0  0
    5.3317   50.7712   26.5030 C   0  0  0  0  0  0  0  0  0  0  0  0
    2.7884   50.3938   27.5660 C   0  0  0  0  0  0  0  0  0  0  0  0
    4.1827   51.0734   25.7375 C   0  0  0  0  0  0  0  0  0  0  0  0
    6.6234   51.0424   25.9365 N   0  0  0  0  0  0  0  0  0  0  0  0
    1.4444   50.3037   27.8734 O   0  0  0  0  0  0  0  0  0  0  0  0
    2.9335   50.8725   26.3092 C   0  0  0  0  0  0  0  0  0  0  0  0
    6.8274   50.8674   24.5872 O   0  0  0  0  0  0  0  0  0  0  0  0
    7.4834   51.6576   26.5997 O   0  0  0  0  0  0  0  0  0  0  0  0
    0.6989   50.7563   26.7349 C   0  0  0  0  0  0  0  0  0  0  0  0
    1.6886   51.1102   25.7590 O   0  0  0  0  0  0  0  0  0  0  0  0
    8.8124   40.1844   34.2133 O   0  0  0  0  0  0  0  0  0  0  0  0
   11.2405   40.7942   33.3692 O   0  0  0  0  0  0  0  0  0  0  0  0
   10.9150   40.6905   31.9972 C   0  0  0  0  0  0  0  0  0  0  0  0
   11.5252   39.3886   31.4375 C   0  0  0  0  0  0  0  0  0  0  0  0
   12.7499   39.0874   32.0799 O   0  0  0  0  0  0  0  0  0  0  0  0
   10.6092   38.1926   31.6470 C   0  0  0  0  0  0  0  0  0  0  0  0
   12.9332   37.6793   32.0294 C   0  0  0  0  0  0  0  0  0  0  0  0
    9.6122   38.0894   30.6542 O   0  0  0  0  0  0  0  0  0  0  0  0
   11.5743   37.0145   31.7024 C   0  0  0  0  0  0  0  0  0  0  0  0
   13.4844   37.2108   33.3241 N   0  0  0  0  0  0  0  0  0  0  0  0
   11.6297   36.3239   30.4740 O   0  0  0  0  0  0  0  0  0  0  0  0
   14.4802   36.3313   33.5727 C   0  0  0  0  0  0  0  0  0  0  0  0
   13.1139   37.6266   34.5692 C   0  0  0  0  0  0  0  0  0  0  0  0
   15.2075   35.6149   32.6739 N   0  0  0  0  0  0  0  0  0  0  0  0
   14.6761   36.2303   34.9182 C   0  0  0  0  0  0  0  0  0  0  0  0
   13.8220   37.0447   35.5785 N   0  0  0  0  0  0  0  0  0  0  0  0
   16.1643   34.7600   33.1547 C   0  0  0  0  0  0  0  0  0  0  0  0
   15.6529   35.3505   35.4130 C   0  0  0  0  0  0  0  0  0  0  0  0
   16.3798   34.6315   34.5042 N   0  0  0  0  0  0  0  0  0  0  0  0
   15.9003   35.1932   36.8090 N   0  0  0  0  0  0  0  0  0  0  0  0
    8.9996   45.4381   33.6725 H   0  0  0  0  0  0  0  0  0  0  0  0
   10.7764   46.9368   33.0157 H   0  0  0  0  0  0  0  0  0  0  0  0
   11.0505   46.2277   34.4980 H   0  0  0  0  0  0  0  0  0  0  0  0
   10.7406   44.9069   31.1836 H   0  0  0  0  0  0  0  0  0  0  0  0
    9.3634   43.8353   31.4717 H   0  0  0  0  0  0  0  0  0  0  0  0
    7.0133   44.7158   31.5842 H   0  0  0  0  0  0  0  0  0  0  0  0
   10.3472   47.1848   30.4051 H   0  0  0  0  0  0  0  0  0  0  0  0
    5.4644   46.3025   30.5036 H   0  0  0  0  0  0  0  0  0  0  0  0
    8.8199   48.7574   29.3415 H   0  0  0  0  0  0  0  0  0  0  0  0
    7.2609   49.6797   28.0111 H   0  0  0  0  0  0  0  0  0  0  0  0
    5.7818   50.9006   30.4452 H   0  0  0  0  0  0  0  0  0  0  0  0
    6.8280   51.8237   29.2963 H   0  0  0  0  0  0  0  0  0  0  0  0
    7.5430   50.5463   30.3392 H   0  0  0  0  0  0  0  0  0  0  0  0
    3.7219   49.6689   29.3548 H   0  0  0  0  0  0  0  0  0  0  0  0
    4.2624   51.4797   24.7374 H   0  0  0  0  0  0  0  0  0  0  0  0
    0.0545   49.9391   26.3482 H   0  0  0  0  0  0  0  0  0  0  0  0
    0.0902   51.6451   27.0030 H   0  0  0  0  0  0  0  0  0  0  0  0
    9.8242   40.7215   31.7641 H   0  0  0  0  0  0  0  0  0  0  0  0
   11.3800   41.5528   31.4730 H   0  0  0  0  0  0  0  0  0  0  0  0
   11.7266   39.5310   30.3513 H   0  0  0  0  0  0  0  0  0  0  0  0
   10.1110   38.2747   32.6387 H   0  0  0  0  0  0  0  0  0  0  0  0
   13.6652   37.4520   31.2226 H   0  0  0  0  0  0  0  0  0  0  0  0
   10.0511   38.1143   29.7645 H   0  0  0  0  0  0  0  0  0  0  0  0
   11.2762   36.3141   32.5189 H   0  0  0  0  0  0  0  0  0  0  0  0
   10.8593   35.6977   30.4640 H   0  0  0  0  0  0  0  0  0  0  0  0
   12.3295   38.3518   34.7449 H   0  0  0  0  0  0  0  0  0  0  0  0
   16.7564   34.1779   32.4620 H   0  0  0  0  0  0  0  0  0  0  0  0
   15.3534   35.7359   37.5138 H   0  0  0  0  0  0  0  0  0  0  0  0
   16.6349   34.5300   37.1415 H   0  0  0  0  0  0  0  0  0  0  0  0
  1  2  2  0
  1  3  1  0
  3  4  1  0
  4  5  1  0
  6  1  1  0
  7  6  1  0
  6  8  1  0
  8  9  1  0
  9 10  2  0
 11  9  1  0
 10 12  1  0
 13 11  2  0
 12 14  2  0
 14 13  1  0
 14 15  1  0
 15 16  1  0
 16 17  1  0
 16 18  1  0
 18 19  2  0
 20 18  1  0
 19 21  1  0
 22 20  2  0
 20 23  1  0
 21 24  1  0
 21 25  2  0
 25 22  1  0
 23 26  1  0
 23 27  2  0
 24 28  1  0
 25 29  1  0
 28 29  1  0
  4 30  2  0
  4 31  1  0
 32 31  1  0
 32 33  1  0
 33 34  1  0
 33 35  1  0
 34 36  1  0
 35 37  1  0
 35 38  1  0
 38 36  1  0
 36 39  1  0
 38 40  1  0
 41 39  1  0
 42 39  1  0
 43 41  2  0
 41 44  1  0
 45 42  2  0
 46 43  1  0
 44 47  2  0
 44 45  1  0
 48 46  2  0
 48 47  1  0
 47 49  1  0
  6 50  1  1
  7 51  1  0
  7 52  1  0
  8 53  1  0
  8 54  1  0
 10 55  1  0
 11 56  1  0
 12 57  1  0
 13 58  1  0
 16 59  1  6
 17 60  1  0
 17 61  1  0
 17 62  1  0
 19 63  1  0
 22 64  1  0
 28 65  1  0
 28 66  1  0
 32 67  1  0
 32 68  1  0
 33 69  1  0
 35 70  1  0
 36 71  1  0
 37 72  1  0
 38 73  1  0
 40 74  1  0
 42 75  1  0
 46 76  1  0
 49 77  1  0
 49 78  1  0
M  CHG  3   5  -1  23   1  26  -1
M  END
>  <EmbedRMS>  (293) 
0.0816282837363

$$$$

     RDKit          3D

 78 83  0  0  0  0  0  0  0  0999 V2000
   10.2838   43.7627   33.8276 C   0  0  0  0  0  0  0  0  0  0  0  0
   11.4103   43.5863   34.3766 O   0  0  0  0  0  0  0  0  0  0  0  0
    9.3628   42.7238   33.7357 O   0  0  0  0  0  0  0  0  0  0  0  0
    9.8890   41.2252   34.2949 P   0  0  0  0  0  0  0  0  0  0  0  0
   10.3724   41.4548   35.8843 O   0  0  0  0  0  0  0  0  0  0  0  0
    9.9549   45.0700   33.2063 C   0  0  1  0  0  0  0  0  0  0  0  0
   11.0198   46.0481   33.4570 N   0  0  0  0  0  0  0  0  0  0  0  0
    9.7507   44.8510   31.6921 C   0  0  0  0  0  0  0  0  0  0  0  0
    8.7946   45.8416   31.0864 C   0  0  0  0  0  0  0  0  0  0  0  0
    7.4080   45.6008   31.1006 C   0  0  0  0  0  0  0  0  0  0  0  0
    9.2827   46.9892   30.4450 C   0  0  0  0  0  0  0  0  0  0  0  0
    6.5254   46.5003   30.4862 C   0  0  0  0  0  0  0  0  0  0  0  0
    8.4008   47.8884   29.8345 C   0  0  0  0  0  0  0  0  0  0  0  0
    7.0190   47.6549   29.8436 C   0  0  0  0  0  0  0  0  0  0  0  0
    6.1877   48.5963   29.2143 O   0  0  0  0  0  0  0  0  0  0  0  0
    4.7843   48.4613   28.9835 C   0  0  2  0  0  0  0  0  0  0  0  0
    4.4976   47.4205   27.8922 C   0  0  0  0  0  0  0  0  0  0  0  0
    4.1920   49.8155   28.6236 C   0  0  0  0  0  0  0  0  0  0  0  0
    3.1867   50.3436   29.4726 C   0  0  0  0  0  0  0  0  0  0  0  0
    4.5696   50.5563   27.4487 C   0  0  0  0  0  0  0  0  0  0  0  0
    2.5877   51.5483   29.1299 C   0  0  0  0  0  0  0  0  0  0  0  0
    3.9110   51.7690   27.1449 C   0  0  0  0  0  0  0  0  0  0  0  0
    5.5889   50.0989   26.5482 N   0  0  0  0  0  0  0  0  0  0  0  0
    1.5946   52.2351   29.8015 O   0  0  0  0  0  0  0  0  0  0  0  0
    2.9321   52.2290   28.0139 C   0  0  0  0  0  0  0  0  0  0  0  0
    5.3948   50.2132   25.1911 O   0  0  0  0  0  0  0  0  0  0  0  0
    6.7344   49.8447   26.9709 O   0  0  0  0  0  0  0  0  0  0  0  0
    1.2985   53.4247   29.0572 C   0  0  0  0  0  0  0  0  0  0  0  0
    2.1751   53.3813   27.9231 O   0  0  0  0  0  0  0  0  0  0  0  0
    8.8112   40.1834   34.2131 O   0  0  0  0  0  0  0  0  0  0  0  0
   11.2398   40.7938   33.3702 O   0  0  0  0  0  0  0  0  0  0  0  0
   10.9144   40.6912   31.9983 C   0  0  0  0  0  0  0  0  0  0  0  0
   11.5270   39.3911   31.4385 C   0  0  0  0  0  0  0  0  0  0  0  0
   12.7520   39.0911   32.0836 O   0  0  0  0  0  0  0  0  0  0  0  0
   10.6113   38.1931   31.6451 C   0  0  0  0  0  0  0  0  0  0  0  0
   12.9413   37.6837   32.0297 C   0  0  0  0  0  0  0  0  0  0  0  0
    9.6064   38.0877   30.6599 O   0  0  0  0  0  0  0  0  0  0  0  0
   11.5822   37.0197   31.6876 C   0  0  0  0  0  0  0  0  0  0  0  0
   13.4840   37.2104   33.3254 N   0  0  0  0  0  0  0  0  0  0  0  0
   11.6179   36.3071   30.4690 O   0  0  0  0  0  0  0  0  0  0  0  0
   14.4797   36.3309   33.5738 C   0  0  0  0  0  0  0  0  0  0  0  0
   13.1136   37.6269   34.5702 C   0  0  0  0  0  0  0  0  0  0  0  0
   15.2074   35.6152   32.6747 N   0  0  0  0  0  0  0  0  0  0  0  0
   14.6756   36.2298   34.9190 C   0  0  0  0  0  0  0  0  0  0  0  0
   13.8217   37.0445   35.5793 N   0  0  0  0  0  0  0  0  0  0  0  0
   16.1643   34.7603   33.1551 C   0  0  0  0  0  0  0  0  0  0  0  0
   15.6528   35.3503   35.4136 C   0  0  0  0  0  0  0  0  0  0  0  0
   16.3798   34.6316   34.5046 N   0  0  0  0  0  0  0  0  0  0  0  0
   15.9004   35.1930   36.8094 N   0  0  0  0  0  0  0  0  0  0  0  0
    9.0098   45.4349   33.6667 H   0  0  0  0  0  0  0  0  0  0  0  0
   11.9350   45.6933   33.0929 H   0  0  0  0  0  0  0  0  0  0  0  0
   11.1132   46.1993   34.4884 H   0  0  0  0  0  0  0  0  0  0  0  0
    9.3521   43.8343   31.4758 H   0  0  0  0  0  0  0  0  0  0  0  0
   10.7312   44.8930   31.1676 H   0  0  0  0  0  0  0  0  0  0  0  0
    7.0130   44.7165   31.5856 H   0  0  0  0  0  0  0  0  0  0  0  0
   10.3466   47.1899   30.4158 H   0  0  0  0  0  0  0  0  0  0  0  0
    5.4680   46.2852   30.5275 H   0  0  0  0  0  0  0  0  0  0  0  0
    8.7940   48.7709   29.3458 H   0  0  0  0  0  0  0  0  0  0  0  0
    4.3043   48.1042   29.9203 H   0  0  0  0  0  0  0  0  0  0  0  0
    3.4149   47.4160   27.6432 H   0  0  0  0  0  0  0  0  0  0  0  0
    4.7710   46.4052   28.2444 H   0  0  0  0  0  0  0  0  0  0  0  0
    5.0798   47.6257   26.9721 H   0  0  0  0  0  0  0  0  0  0  0  0
    2.8678   49.8265   30.3688 H   0  0  0  0  0  0  0  0  0  0  0  0
    4.1689   52.3436   26.2645 H   0  0  0  0  0  0  0  0  0  0  0  0
    0.2396   53.4155   28.7236 H   0  0  0  0  0  0  0  0  0  0  0  0
    1.5107   54.3249   29.6713 H   0  0  0  0  0  0  0  0  0  0  0  0
    9.8235   40.7202   31.7651 H   0  0  0  0  0  0  0  0  0  0  0  0
   11.3780   41.5548   31.4750 H   0  0  0  0  0  0  0  0  0  0  0  0
   11.7311   39.5363   30.3532 H   0  0  0  0  0  0  0  0  0  0  0  0
   10.1202   38.2696   32.6410 H   0  0  0  0  0  0  0  0  0  0  0  0
   13.6850   37.4638   31.2321 H   0  0  0  0  0  0  0  0  0  0  0  0
   10.0251   38.1791   29.7654 H   0  0  0  0  0  0  0  0  0  0  0  0
   11.2757   36.3135   32.4907 H   0  0  0  0  0  0  0  0  0  0  0  0
   11.9838   36.9111   29.7708 H   0  0  0  0  0  0  0  0  0  0  0  0
   12.3307   38.3536   34.7457 H   0  0  0  0  0  0  0  0  0  0  0  0
   16.7566   34.1786   32.4623 H   0  0  0  0  0  0  0  0  0  0  0  0
   15.3535   35.7355   37.5144 H   0  0  0  0  0  0  0  0  0  0  0  0
   16.6353   34.5301   37.1419 H   0  0  0  0  0  0  0  0  0  0  0  0
  1  2  2  0
  1  3  1  0
  3  4  1  0
  4  5  1  0
  6  1  1  0
  7  6  1  0
  6  8  1  0
  8  9  1  0
  9 10  2  0
 11  9  1  0
 10 12  1  0
 13 11  2  0
 12 14  2  0
 14 13  1  0
 14 15  1  0
 15 16  1  0
 16 17  1  0
 16 18  1  0
 18 19  2  0
 20 18  1  0
 19 21  1  0
 22 20  2  0
 20 23  1  0
 21 24  1  0
 21 25  2  0
 25 22  1  0
 23 26  1  0
 23 27  2  0
 24 28  1  0
 25 29  1  0
 28 29  1  0
  4 30  2  0
  4 31  1  0
 32 31  1  0
 32 33  1  0
 33 34  1  0
 33 35  1  0
 34 36  1  0
 35 37  1  0
 35 38  1  0
 38 36  1  0
 36 39  1  0
 38 40  1  0
 41 39  1  0
 42 39  1  0
 43 41  2  0
 41 44  1  0
 45 42  2  0
 46 43  1  0
 44 47  2  0
 44 45  1  0
 48 46  2  0
 48 47  1  0
 47 49  1  0
  6 50  1  1
  7 51  1  0
  7 52  1  0
  8 53  1  0
  8 54  1  0
 10 55  1  0
 11 56  1  0
 12 57  1  0
 13 58  1  0
 16 59  1  1
 17 60  1  0
 17 61  1  0
 17 62  1  0
 19 63  1  0
 22 64  1  0
 28 65  1  0
 28 66  1  0
 32 67  1  0
 32 68  1  0
 33 69  1  0
 35 70  1  0
 36 71  1  0
 37 72  1  0
 38 73  1  0
 40 74  1  0
 42 75  1  0
 46 76  1  0
 49 77  1  0
 49 78  1  0
M  CHG  3   5  -1  23   1  26  -1
M  END
>  <EmbedRMS>  (294) 
0.0817286836733

$$$$

     RDKit          3D

 78 83  0  0  0  0  0  0  0  0999 V2000
   10.2812   43.7672   33.8260 C   0  0  0  0  0  0  0  0  0  0  0  0
   11.4125   43.5918   34.3665 O   0  0  0  0  0  0  0  0  0  0  0  0
    9.3624   42.7257   33.7340 O   0  0  0  0  0  0  0  0  0  0  0  0
    9.8881   41.2267   34.2930 P   0  0  0  0  0  0  0  0  0  0  0  0
   10.3728   41.4579   35.8813 O   0  0  0  0  0  0  0  0  0  0  0  0
    9.9457   45.0746   33.2118 C   0  0  1  0  0  0  0  0  0  0  0  0
   11.0232   46.0337   33.4716 N   0  0  0  0  0  0  0  0  0  0  0  0
    9.7541   44.8537   31.6958 C   0  0  0  0  0  0  0  0  0  0  0  0
    8.7981   45.8421   31.0854 C   0  0  0  0  0  0  0  0  0  0  0  0
    7.4121   45.6008   31.1047 C   0  0  0  0  0  0  0  0  0  0  0  0
    9.2846   46.9863   30.4340 C   0  0  0  0  0  0  0  0  0  0  0  0
    6.5275   46.4994   30.4934 C   0  0  0  0  0  0  0  0  0  0  0  0
    8.3999   47.8816   29.8213 C   0  0  0  0  0  0  0  0  0  0  0  0
    7.0176   47.6540   29.8546 C   0  0  0  0  0  0  0  0  0  0  0  0
    6.1682   48.5830   29.2341 O   0  0  0  0  0  0  0  0  0  0  0  0
    5.0361   49.2064   29.8572 C   0  0  2  0  0  0  0  0  0  0  0  0
    5.4858   49.9281   31.1394 C   0  0  0  0  0  0  0  0  0  0  0  0
    3.8699   48.2303   30.0163 C   0  0  0  0  0  0  0  0  0  0  0  0
    3.2704   48.0052   31.2876 C   0  0  0  0  0  0  0  0  0  0  0  0
    3.3893   47.4823   28.8860 C   0  0  0  0  0  0  0  0  0  0  0  0
    2.2601   47.0572   31.3923 C   0  0  0  0  0  0  0  0  0  0  0  0
    2.3629   46.5217   29.0604 C   0  0  0  0  0  0  0  0  0  0  0  0
    3.9451   47.6633   27.5709 N   0  0  0  0  0  0  0  0  0  0  0  0
    1.5544   46.6775   32.5192 O   0  0  0  0  0  0  0  0  0  0  0  0
    1.8270   46.3455   30.3278 C   0  0  0  0  0  0  0  0  0  0  0  0
    4.1092   48.9275   27.0505 O   0  0  0  0  0  0  0  0  0  0  0  0
    4.0755   46.6800   26.8094 O   0  0  0  0  0  0  0  0  0  0  0  0
    0.6163   45.6629   32.1346 C   0  0  0  0  0  0  0  0  0  0  0  0
    0.8237   45.4808   30.7262 O   0  0  0  0  0  0  0  0  0  0  0  0
    8.8098   40.1845   34.2129 O   0  0  0  0  0  0  0  0  0  0  0  0
   11.2389   40.7943   33.3688 O   0  0  0  0  0  0  0  0  0  0  0  0
   10.9138   40.6914   31.9971 C   0  0  0  0  0  0  0  0  0  0  0  0
   11.5246   39.3893   31.4369 C   0  0  0  0  0  0  0  0  0  0  0  0
   12.7501   39.0874   32.0784 O   0  0  0  0  0  0  0  0  0  0  0  0
   10.6098   38.1922   31.6461 C   0  0  0  0  0  0  0  0  0  0  0  0
   12.9334   37.6788   32.0282 C   0  0  0  0  0  0  0  0  0  0  0  0
    9.6116   38.0883   30.6548 O   0  0  0  0  0  0  0  0  0  0  0  0
   11.5744   37.0137   31.7026 C   0  0  0  0  0  0  0  0  0  0  0  0
   13.4851   37.2101   33.3229 N   0  0  0  0  0  0  0  0  0  0  0  0
   11.6290   36.3229   30.4744 O   0  0  0  0  0  0  0  0  0  0  0  0
   14.4826   36.3331   33.5721 C   0  0  0  0  0  0  0  0  0  0  0  0
   13.1107   37.6221   34.5680 C   0  0  0  0  0  0  0  0  0  0  0  0
   15.2091   35.6155   32.6739 N   0  0  0  0  0  0  0  0  0  0  0  0
   14.6774   36.2320   34.9180 C   0  0  0  0  0  0  0  0  0  0  0  0
   13.8192   37.0420   35.5781 N   0  0  0  0  0  0  0  0  0  0  0  0
   16.1667   34.7621   33.1555 C   0  0  0  0  0  0  0  0  0  0  0  0
   15.6531   35.3518   35.4137 C   0  0  0  0  0  0  0  0  0  0  0  0
   16.3812   34.6337   34.5052 N   0  0  0  0  0  0  0  0  0  0  0  0
   15.8969   35.1913   36.8099 N   0  0  0  0  0  0  0  0  0  0  0  0
    8.9984   45.4390   33.6713 H   0  0  0  0  0  0  0  0  0  0  0  0
   11.0435   46.2326   34.4990 H   0  0  0  0  0  0  0  0  0  0  0  0
   10.7691   46.9415   33.0177 H   0  0  0  0  0  0  0  0  0  0  0  0
    9.3629   43.8348   31.4730 H   0  0  0  0  0  0  0  0  0  0  0  0
   10.7399   44.9039   31.1833 H   0  0  0  0  0  0  0  0  0  0  0  0
    7.0212   44.7142   31.5886 H   0  0  0  0  0  0  0  0  0  0  0  0
   10.3488   47.1864   30.3947 H   0  0  0  0  0  0  0  0  0  0  0  0
    5.4742   46.2692   30.5094 H   0  0  0  0  0  0  0  0  0  0  0  0
    8.7895   48.7612   29.3251 H   0  0  0  0  0  0  0  0  0  0  0  0
    4.6866   50.0108   29.1777 H   0  0  0  0  0  0  0  0  0  0  0  0
    6.3335   50.6067   30.9026 H   0  0  0  0  0  0  0  0  0  0  0  0
    5.8293   49.2037   31.9093 H   0  0  0  0  0  0  0  0  0  0  0  0
    4.6554   50.5438   31.5478 H   0  0  0  0  0  0  0  0  0  0  0  0
    3.5760   48.5290   32.1824 H   0  0  0  0  0  0  0  0  0  0  0  0
    1.9857   45.9391   28.2273 H   0  0  0  0  0  0  0  0  0  0  0  0
   -0.4212   46.0082   32.3283 H   0  0  0  0  0  0  0  0  0  0  0  0
    0.8280   44.7186   32.6807 H   0  0  0  0  0  0  0  0  0  0  0  0
    9.8222   40.7216   31.7661 H   0  0  0  0  0  0  0  0  0  0  0  0
   11.3785   41.5552   31.4736 H   0  0  0  0  0  0  0  0  0  0  0  0
   11.7228   39.5336   30.3502 H   0  0  0  0  0  0  0  0  0  0  0  0
   10.1119   38.2734   32.6368 H   0  0  0  0  0  0  0  0  0  0  0  0
   13.6648   37.4511   31.2202 H   0  0  0  0  0  0  0  0  0  0  0  0
   10.0486   38.1205   29.7646 H   0  0  0  0  0  0  0  0  0  0  0  0
   11.2767   36.3132   32.5205 H   0  0  0  0  0  0  0  0  0  0  0  0
   10.8590   35.6964   30.4656 H   0  0  0  0  0  0  0  0  0  0  0  0
   12.3211   38.3409   34.7425 H   0  0  0  0  0  0  0  0  0  0  0  0
   16.7622   34.1833   32.4632 H   0  0  0  0  0  0  0  0  0  0  0  0
   16.6317   34.5285   37.1421 H   0  0  0  0  0  0  0  0  0  0  0  0
   15.3515   35.7344   37.5156 H   0  0  0  0  0  0  0  0  0  0  0  0
  1  2  2  0
  1  3  1  0
  3  4  1  0
  4  5  1  0
  6  1  1  0
  7  6  1  0
  6  8  1  0
  8  9  1  0
  9 10  2  0
 11  9  1  0
 10 12  1  0
 13 11  2  0
 12 14  2  0
 14 13  1  0
 14 15  1  0
 15 16  1  0
 16 17  1  0
 16 18  1  0
 18 19  2  0
 20 18  1  0
 19 21  1  0
 22 20  2  0
 20 23  1  0
 21 24  1  0
 21 25  2  0
 25 22  1  0
 23 26  1  0
 23 27  2  0
 24 28  1  0
 25 29  1  0
 28 29  1  0
  4 30  2  0
  4 31  1  0
 32 31  1  0
 32 33  1  0
 33 34  1  0
 33 35  1  0
 34 36  1  0
 35 37  1  0
 35 38  1  0
 38 36  1  0
 36 39  1  0
 38 40  1  0
 41 39  1  0
 42 39  1  0
 43 41  2  0
 41 44  1  0
 45 42  2  0
 46 43  1  0
 44 47  2  0
 44 45  1  0
 48 46  2  0
 48 47  1  0
 47 49  1  0
  6 50  1  1
  7 51  1  0
  7 52  1  0
  8 53  1  0
  8 54  1  0
 10 55  1  0
 11 56  1  0
 12 57  1  0
 13 58  1  0
 16 59  1  6
 17 60  1  0
 17 61  1  0
 17 62  1  0
 19 63  1  0
 22 64  1  0
 28 65  1  0
 28 66  1  0
 32 67  1  0
 32 68  1  0
 33 69  1  0
 35 70  1  0
 36 71  1  0
 37 72  1  0
 38 73  1  0
 40 74  1  0
 42 75  1  0
 46 76  1  0
 49 77  1  0
 49 78  1  0
M  CHG  3   5  -1  23   1  26  -1
M  END
>  <EmbedRMS>  (295) 
0.0820158743825

$$$$

     RDKit          3D

 78 83  0  0  0  0  0  0  0  0999 V2000
   10.2800   43.7668   33.8249 C   0  0  0  0  0  0  0  0  0  0  0  0
   11.4108   43.5924   34.3664 O   0  0  0  0  0  0  0  0  0  0  0  0
    9.3617   42.7251   33.7345 O   0  0  0  0  0  0  0  0  0  0  0  0
    9.8900   41.2268   34.2940 P   0  0  0  0  0  0  0  0  0  0  0  0
   10.3735   41.4568   35.8833 O   0  0  0  0  0  0  0  0  0  0  0  0
    9.9450   45.0740   33.2111 C   0  0  1  0  0  0  0  0  0  0  0  0
   11.0252   46.0302   33.4709 N   0  0  0  0  0  0  0  0  0  0  0  0
    9.7536   44.8544   31.6948 C   0  0  0  0  0  0  0  0  0  0  0  0
    8.7955   45.8410   31.0842 C   0  0  0  0  0  0  0  0  0  0  0  0
    7.4076   45.5985   31.0992 C   0  0  0  0  0  0  0  0  0  0  0  0
    9.2835   46.9878   30.4367 C   0  0  0  0  0  0  0  0  0  0  0  0
    6.5268   46.4987   30.4837 C   0  0  0  0  0  0  0  0  0  0  0  0
    8.4009   47.8876   29.8272 C   0  0  0  0  0  0  0  0  0  0  0  0
    7.0203   47.6530   29.8585 C   0  0  0  0  0  0  0  0  0  0  0  0
    6.1411   48.5472   29.2428 O   0  0  0  0  0  0  0  0  0  0  0  0
    5.4917   49.6260   29.9234 C   0  0  2  0  0  0  0  0  0  0  0  0
    6.4593   50.7853   30.1829 C   0  0  0  0  0  0  0  0  0  0  0  0
    4.7049   49.1373   31.1396 C   0  0  0  0  0  0  0  0  0  0  0  0
    3.3523   48.7715   30.9225 C   0  0  0  0  0  0  0  0  0  0  0  0
    5.2733   48.9272   32.4444 C   0  0  0  0  0  0  0  0  0  0  0  0
    2.6267   48.2288   31.9748 C   0  0  0  0  0  0  0  0  0  0  0  0
    4.4895   48.3643   33.4738 C   0  0  0  0  0  0  0  0  0  0  0  0
    6.6221   49.2803   32.7546 N   0  0  0  0  0  0  0  0  0  0  0  0
    1.3117   47.8050   31.9827 O   0  0  0  0  0  0  0  0  0  0  0  0
    3.1718   48.0322   33.1960 C   0  0  0  0  0  0  0  0  0  0  0  0
    7.5189   48.2799   33.0463 O   0  0  0  0  0  0  0  0  0  0  0  0
    6.8620   50.4346   33.1635 O   0  0  0  0  0  0  0  0  0  0  0  0
    1.0136   47.3126   33.2962 C   0  0  0  0  0  0  0  0  0  0  0  0
    2.2292   47.4762   34.0393 O   0  0  0  0  0  0  0  0  0  0  0  0
    8.8124   40.1845   34.2133 O   0  0  0  0  0  0  0  0  0  0  0  0
   11.2405   40.7944   33.3691 O   0  0  0  0  0  0  0  0  0  0  0  0
   10.9150   40.6905   31.9972 C   0  0  0  0  0  0  0  0  0  0  0  0
   11.5252   39.3886   31.4375 C   0  0  0  0  0  0  0  0  0  0  0  0
   12.7499   39.0874   32.0800 O   0  0  0  0  0  0  0  0  0  0  0  0
   10.6092   38.1926   31.6470 C   0  0  0  0  0  0  0  0  0  0  0  0
   12.9332   37.6793   32.0294 C   0  0  0  0  0  0  0  0  0  0  0  0
    9.6121   38.0894   30.6543 O   0  0  0  0  0  0  0  0  0  0  0  0
   11.5743   37.0145   31.7024 C   0  0  0  0  0  0  0  0  0  0  0  0
   13.4844   37.2108   33.3241 N   0  0  0  0  0  0  0  0  0  0  0  0
   11.6298   36.3239   30.4740 O   0  0  0  0  0  0  0  0  0  0  0  0
   14.4802   36.3313   33.5727 C   0  0  0  0  0  0  0  0  0  0  0  0
   13.1139   37.6267   34.5693 C   0  0  0  0  0  0  0  0  0  0  0  0
   15.2075   35.6149   32.6739 N   0  0  0  0  0  0  0  0  0  0  0  0
   14.6761   36.2303   34.9181 C   0  0  0  0  0  0  0  0  0  0  0  0
   13.8220   37.0447   35.5785 N   0  0  0  0  0  0  0  0  0  0  0  0
   16.1643   34.7600   33.1547 C   0  0  0  0  0  0  0  0  0  0  0  0
   15.6529   35.3505   35.4130 C   0  0  0  0  0  0  0  0  0  0  0  0
   16.3797   34.6315   34.5042 N   0  0  0  0  0  0  0  0  0  0  0  0
   15.9003   35.1932   36.8090 N   0  0  0  0  0  0  0  0  0  0  0  0
    8.9982   45.4383   33.6717 H   0  0  0  0  0  0  0  0  0  0  0  0
   10.7737   46.9379   33.0165 H   0  0  0  0  0  0  0  0  0  0  0  0
   11.0486   46.2284   34.4983 H   0  0  0  0  0  0  0  0  0  0  0  0
    9.3642   43.8356   31.4711 H   0  0  0  0  0  0  0  0  0  0  0  0
   10.7409   44.9081   31.1839 H   0  0  0  0  0  0  0  0  0  0  0  0
    7.0123   44.7134   31.5822 H   0  0  0  0  0  0  0  0  0  0  0  0
   10.3475   47.1857   30.3997 H   0  0  0  0  0  0  0  0  0  0  0  0
    5.4623   46.3024   30.4982 H   0  0  0  0  0  0  0  0  0  0  0  0
    8.7903   48.7657   29.3283 H   0  0  0  0  0  0  0  0  0  0  0  0
    4.7550   50.0423   29.2010 H   0  0  0  0  0  0  0  0  0  0  0  0
    6.7307   51.2624   29.2171 H   0  0  0  0  0  0  0  0  0  0  0  0
    5.9800   51.5539   30.8256 H   0  0  0  0  0  0  0  0  0  0  0  0
    7.4022   50.4359   30.6460 H   0  0  0  0  0  0  0  0  0  0  0  0
    2.8820   48.8865   29.9540 H   0  0  0  0  0  0  0  0  0  0  0  0
    4.8992   48.1977   34.4619 H   0  0  0  0  0  0  0  0  0  0  0  0
    0.2000   47.9123   33.7557 H   0  0  0  0  0  0  0  0  0  0  0  0
    0.7344   46.2391   33.2498 H   0  0  0  0  0  0  0  0  0  0  0  0
    9.8241   40.7214   31.7641 H   0  0  0  0  0  0  0  0  0  0  0  0
   11.3799   41.5528   31.4729 H   0  0  0  0  0  0  0  0  0  0  0  0
   11.7266   39.5310   30.3513 H   0  0  0  0  0  0  0  0  0  0  0  0
   10.1110   38.2747   32.6387 H   0  0  0  0  0  0  0  0  0  0  0  0
   13.6652   37.4520   31.2226 H   0  0  0  0  0  0  0  0  0  0  0  0
   10.0511   38.1143   29.7645 H   0  0  0  0  0  0  0  0  0  0  0  0
   11.2762   36.3141   32.5189 H   0  0  0  0  0  0  0  0  0  0  0  0
   10.8593   35.6978   30.4640 H   0  0  0  0  0  0  0  0  0  0  0  0
   12.3295   38.3518   34.7450 H   0  0  0  0  0  0  0  0  0  0  0  0
   16.7564   34.1780   32.4620 H   0  0  0  0  0  0  0  0  0  0  0  0
   15.3534   35.7359   37.5138 H   0  0  0  0  0  0  0  0  0  0  0  0
   16.6348   34.5300   37.1416 H   0  0  0  0  0  0  0  0  0  0  0  0
  1  2  2  0
  1  3  1  0
  3  4  1  0
  4  5  1  0
  6  1  1  0
  7  6  1  0
  6  8  1  0
  8  9  1  0
  9 10  2  0
 11  9  1  0
 10 12  1  0
 13 11  2  0
 12 14  2  0
 14 13  1  0
 14 15  1  0
 15 16  1  0
 16 17  1  0
 16 18  1  0
 18 19  2  0
 20 18  1  0
 19 21  1  0
 22 20  2  0
 20 23  1  0
 21 24  1  0
 21 25  2  0
 25 22  1  0
 23 26  1  0
 23 27  2  0
 24 28  1  0
 25 29  1  0
 28 29  1  0
  4 30  2  0
  4 31  1  0
 32 31  1  0
 32 33  1  0
 33 34  1  0
 33 35  1  0
 34 36  1  0
 35 37  1  0
 35 38  1  0
 38 36  1  0
 36 39  1  0
 38 40  1  0
 41 39  1  0
 42 39  1  0
 43 41  2  0
 41 44  1  0
 45 42  2  0
 46 43  1  0
 44 47  2  0
 44 45  1  0
 48 46  2  0
 48 47  1  0
 47 49  1  0
  6 50  1  1
  7 51  1  0
  7 52  1  0
  8 53  1  0
  8 54  1  0
 10 55  1  0
 11 56  1  0
 12 57  1  0
 13 58  1  0
 16 59  1  6
 17 60  1  0
 17 61  1  0
 17 62  1  0
 19 63  1  0
 22 64  1  0
 28 65  1  0
 28 66  1  0
 32 67  1  0
 32 68  1  0
 33 69  1  0
 35 70  1  0
 36 71  1  0
 37 72  1  0
 38 73  1  0
 40 74  1  0
 42 75  1  0
 46 76  1  0
 49 77  1  0
 49 78  1  0
M  CHG  3   5  -1  23   1  26  -1
M  END
>  <EmbedRMS>  (296) 
0.0817945110761

$$$$

     RDKit          3D

 78 83  0  0  0  0  0  0  0  0999 V2000
   10.2803   43.7665   33.8249 C   0  0  0  0  0  0  0  0  0  0  0  0
   11.4109   43.5921   34.3666 O   0  0  0  0  0  0  0  0  0  0  0  0
    9.3621   42.7248   33.7342 O   0  0  0  0  0  0  0  0  0  0  0  0
    9.8904   41.2265   34.2936 P   0  0  0  0  0  0  0  0  0  0  0  0
   10.3731   41.4565   35.8831 O   0  0  0  0  0  0  0  0  0  0  0  0
    9.9454   45.0739   33.2113 C   0  0  1  0  0  0  0  0  0  0  0  0
   11.0260   46.0296   33.4709 N   0  0  0  0  0  0  0  0  0  0  0  0
    9.7534   44.8546   31.6950 C   0  0  0  0  0  0  0  0  0  0  0  0
    8.7952   45.8418   31.0850 C   0  0  0  0  0  0  0  0  0  0  0  0
    7.4074   45.5993   31.1000 C   0  0  0  0  0  0  0  0  0  0  0  0
    9.2832   46.9883   30.4371 C   0  0  0  0  0  0  0  0  0  0  0  0
    6.5268   46.4984   30.4828 C   0  0  0  0  0  0  0  0  0  0  0  0
    8.4006   47.8877   29.8270 C   0  0  0  0  0  0  0  0  0  0  0  0
    7.0200   47.6524   29.8571 C   0  0  0  0  0  0  0  0  0  0  0  0
    6.1388   48.5541   29.2531 O   0  0  0  0  0  0  0  0  0  0  0  0
    5.5185   49.6386   29.9518 C   0  0  2  0  0  0  0  0  0  0  0  0
    6.5390   50.7370   30.2838 C   0  0  0  0  0  0  0  0  0  0  0  0
    4.7349   49.1417   31.1634 C   0  0  0  0  0  0  0  0  0  0  0  0
    5.3951   48.9593   32.4071 C   0  0  0  0  0  0  0  0  0  0  0  0
    3.3348   48.8355   31.0696 C   0  0  0  0  0  0  0  0  0  0  0  0
    4.6496   48.5450   33.5022 C   0  0  0  0  0  0  0  0  0  0  0  0
    2.6247   48.4391   32.2253 C   0  0  0  0  0  0  0  0  0  0  0  0
    2.6314   48.8850   29.8178 N   0  0  0  0  0  0  0  0  0  0  0  0
    5.0795   48.3130   34.7945 O   0  0  0  0  0  0  0  0  0  0  0  0
    3.3221   48.3037   33.4173 C   0  0  0  0  0  0  0  0  0  0  0  0
    1.3091   49.2641   29.7910 O   0  0  0  0  0  0  0  0  0  0  0  0
    3.1299   48.3696   28.7961 O   0  0  0  0  0  0  0  0  0  0  0  0
    3.9460   47.9009   35.5703 C   0  0  0  0  0  0  0  0  0  0  0  0
    2.8445   47.9084   34.6520 O   0  0  0  0  0  0  0  0  0  0  0  0
    8.8129   40.1842   34.2124 O   0  0  0  0  0  0  0  0  0  0  0  0
   11.2418   40.7945   33.3695 O   0  0  0  0  0  0  0  0  0  0  0  0
   10.9185   40.6911   31.9969 C   0  0  0  0  0  0  0  0  0  0  0  0
   11.5172   39.3814   31.4407 C   0  0  0  0  0  0  0  0  0  0  0  0
   12.7492   39.0856   32.0729 O   0  0  0  0  0  0  0  0  0  0  0  0
   10.6023   38.1908   31.6665 C   0  0  0  0  0  0  0  0  0  0  0  0
   12.9319   37.6781   32.0281 C   0  0  0  0  0  0  0  0  0  0  0  0
    9.6392   38.0797   30.6452 O   0  0  0  0  0  0  0  0  0  0  0  0
   11.5715   37.0165   31.7056 C   0  0  0  0  0  0  0  0  0  0  0  0
   13.4846   37.2121   33.3235 N   0  0  0  0  0  0  0  0  0  0  0  0
   11.6187   36.3384   30.4695 O   0  0  0  0  0  0  0  0  0  0  0  0
   14.4801   36.3321   33.5724 C   0  0  0  0  0  0  0  0  0  0  0  0
   13.1137   37.6275   34.5688 C   0  0  0  0  0  0  0  0  0  0  0  0
   15.2073   35.6153   32.6738 N   0  0  0  0  0  0  0  0  0  0  0  0
   14.6759   36.2308   34.9179 C   0  0  0  0  0  0  0  0  0  0  0  0
   13.8216   37.0452   35.5781 N   0  0  0  0  0  0  0  0  0  0  0  0
   16.1640   34.7602   33.1546 C   0  0  0  0  0  0  0  0  0  0  0  0
   15.6526   35.3508   35.4129 C   0  0  0  0  0  0  0  0  0  0  0  0
   16.3794   34.6317   34.5041 N   0  0  0  0  0  0  0  0  0  0  0  0
   15.8999   35.1934   36.8088 N   0  0  0  0  0  0  0  0  0  0  0  0
    8.9989   45.4383   33.6723 H   0  0  0  0  0  0  0  0  0  0  0  0
   11.0495   46.2281   34.4983 H   0  0  0  0  0  0  0  0  0  0  0  0
   10.7755   46.9372   33.0160 H   0  0  0  0  0  0  0  0  0  0  0  0
   10.7405   44.9082   31.1837 H   0  0  0  0  0  0  0  0  0  0  0  0
    9.3637   43.8360   31.4712 H   0  0  0  0  0  0  0  0  0  0  0  0
    7.0121   44.7144   31.5833 H   0  0  0  0  0  0  0  0  0  0  0  0
   10.3472   47.1865   30.4006 H   0  0  0  0  0  0  0  0  0  0  0  0
    5.4621   46.3030   30.4985 H   0  0  0  0  0  0  0  0  0  0  0  0
    8.7894   48.7679   29.3312 H   0  0  0  0  0  0  0  0  0  0  0  0
    4.8119   50.1235   29.2469 H   0  0  0  0  0  0  0  0  0  0  0  0
    7.3896   50.3447   30.8764 H   0  0  0  0  0  0  0  0  0  0  0  0
    6.0480   51.5567   30.8505 H   0  0  0  0  0  0  0  0  0  0  0  0
    6.9492   51.1590   29.3417 H   0  0  0  0  0  0  0  0  0  0  0  0
    6.4557   49.1271   32.5268 H   0  0  0  0  0  0  0  0  0  0  0  0
    1.5682   48.2073   32.1865 H   0  0  0  0  0  0  0  0  0  0  0  0
    3.7625   48.6212   36.3949 H   0  0  0  0  0  0  0  0  0  0  0  0
    4.1055   46.8771   35.9691 H   0  0  0  0  0  0  0  0  0  0  0  0
   11.3966   41.5460   31.4725 H   0  0  0  0  0  0  0  0  0  0  0  0
    9.8298   40.7409   31.7611 H   0  0  0  0  0  0  0  0  0  0  0  0
   11.6975   39.5066   30.3481 H   0  0  0  0  0  0  0  0  0  0  0  0
   10.1076   38.2647   32.6645 H   0  0  0  0  0  0  0  0  0  0  0  0
   13.6621   37.4468   31.2209 H   0  0  0  0  0  0  0  0  0  0  0  0
    8.8974   38.6942   30.8832 H   0  0  0  0  0  0  0  0  0  0  0  0
   11.2806   36.3073   32.5170 H   0  0  0  0  0  0  0  0  0  0  0  0
   10.8493   35.7110   30.4586 H   0  0  0  0  0  0  0  0  0  0  0  0
   12.3290   38.3524   34.7444 H   0  0  0  0  0  0  0  0  0  0  0  0
   16.7559   34.1780   32.4619 H   0  0  0  0  0  0  0  0  0  0  0  0
   15.3532   35.7362   37.5137 H   0  0  0  0  0  0  0  0  0  0  0  0
   16.6344   34.5301   37.1414 H   0  0  0  0  0  0  0  0  0  0  0  0
  1  2  2  0
  1  3  1  0
  3  4  1  0
  4  5  1  0
  6  1  1  0
  7  6  1  0
  6  8  1  0
  8  9  1  0
  9 10  2  0
 11  9  1  0
 10 12  1  0
 13 11  2  0
 12 14  2  0
 14 13  1  0
 14 15  1  0
 15 16  1  0
 16 17  1  0
 16 18  1  0
 18 19  2  0
 20 18  1  0
 19 21  1  0
 22 20  2  0
 20 23  1  0
 21 24  1  0
 21 25  2  0
 25 22  1  0
 23 26  1  0
 23 27  2  0
 24 28  1  0
 25 29  1  0
 28 29  1  0
  4 30  2  0
  4 31  1  0
 32 31  1  0
 32 33  1  0
 33 34  1  0
 33 35  1  0
 34 36  1  0
 35 37  1  0
 35 38  1  0
 38 36  1  0
 36 39  1  0
 38 40  1  0
 41 39  1  0
 42 39  1  0
 43 41  2  0
 41 44  1  0
 45 42  2  0
 46 43  1  0
 44 47  2  0
 44 45  1  0
 48 46  2  0
 48 47  1  0
 47 49  1  0
  6 50  1  1
  7 51  1  0
  7 52  1  0
  8 53  1  0
  8 54  1  0
 10 55  1  0
 11 56  1  0
 12 57  1  0
 13 58  1  0
 16 59  1  6
 17 60  1  0
 17 61  1  0
 17 62  1  0
 19 63  1  0
 22 64  1  0
 28 65  1  0
 28 66  1  0
 32 67  1  0
 32 68  1  0
 33 69  1  0
 35 70  1  0
 36 71  1  0
 37 72  1  0
 38 73  1  0
 40 74  1  0
 42 75  1  0
 46 76  1  0
 49 77  1  0
 49 78  1  0
M  CHG  3   5  -1  23   1  26  -1
M  END
>  <EmbedRMS>  (297) 
0.08287266036

$$$$

     RDKit          3D

 78 83  0  0  0  0  0  0  0  0999 V2000
   10.2839   43.7626   33.8277 C   0  0  0  0  0  0  0  0  0  0  0  0
   11.4104   43.5863   34.3767 O   0  0  0  0  0  0  0  0  0  0  0  0
    9.3631   42.7235   33.7354 O   0  0  0  0  0  0  0  0  0  0  0  0
    9.8895   41.2249   34.2944 P   0  0  0  0  0  0  0  0  0  0  0  0
   10.3727   41.4546   35.8839 O   0  0  0  0  0  0  0  0  0  0  0  0
    9.9548   45.0699   33.2065 C   0  0  1  0  0  0  0  0  0  0  0  0
   11.0199   46.0480   33.4569 N   0  0  0  0  0  0  0  0  0  0  0  0
    9.7500   44.8508   31.6926 C   0  0  0  0  0  0  0  0  0  0  0  0
    8.7941   45.8419   31.0874 C   0  0  0  0  0  0  0  0  0  0  0  0
    7.4077   45.6008   31.0997 C   0  0  0  0  0  0  0  0  0  0  0  0
    9.2830   46.9887   30.4447 C   0  0  0  0  0  0  0  0  0  0  0  0
    6.5285   46.5014   30.4833 C   0  0  0  0  0  0  0  0  0  0  0  0
    8.4039   47.8896   29.8315 C   0  0  0  0  0  0  0  0  0  0  0  0
    7.0137   47.6534   29.8487 C   0  0  0  0  0  0  0  0  0  0  0  0
    6.0822   48.5168   29.2480 O   0  0  0  0  0  0  0  0  0  0  0  0
    6.3683   49.7911   28.6650 C   0  0  2  0  0  0  0  0  0  0  0  0
    6.6464   50.8299   29.7600 C   0  0  0  0  0  0  0  0  0  0  0  0
    5.1798   50.2183   27.8218 C   0  0  0  0  0  0  0  0  0  0  0  0
    3.9127   50.3306   28.4472 C   0  0  0  0  0  0  0  0  0  0  0  0
    5.3027   50.5506   26.4309 C   0  0  0  0  0  0  0  0  0  0  0  0
    2.8412   50.8010   27.6995 C   0  0  0  0  0  0  0  0  0  0  0  0
    4.1813   51.0417   25.7261 C   0  0  0  0  0  0  0  0  0  0  0  0
    6.5347   50.3780   25.7173 N   0  0  0  0  0  0  0  0  0  0  0  0
    1.5344   50.9995   28.1017 O   0  0  0  0  0  0  0  0  0  0  0  0
    2.9712   51.1476   26.3984 C   0  0  0  0  0  0  0  0  0  0  0  0
    6.9379   51.3371   24.8174 O   0  0  0  0  0  0  0  0  0  0  0  0
    7.0849   49.2578   25.6902 O   0  0  0  0  0  0  0  0  0  0  0  0
    0.7977   51.5032   26.9790 C   0  0  0  0  0  0  0  0  0  0  0  0
    1.7532   51.5821   25.9123 O   0  0  0  0  0  0  0  0  0  0  0  0
    8.8114   40.1833   34.2129 O   0  0  0  0  0  0  0  0  0  0  0  0
   11.2402   40.7930   33.3696 O   0  0  0  0  0  0  0  0  0  0  0  0
   10.9151   40.6903   31.9975 C   0  0  0  0  0  0  0  0  0  0  0  0
   11.5252   39.3885   31.4375 C   0  0  0  0  0  0  0  0  0  0  0  0
   12.7500   39.0873   32.0798 O   0  0  0  0  0  0  0  0  0  0  0  0
   10.6092   38.1925   31.6469 C   0  0  0  0  0  0  0  0  0  0  0  0
   12.9332   37.6792   32.0294 C   0  0  0  0  0  0  0  0  0  0  0  0
    9.6122   38.0894   30.6542 O   0  0  0  0  0  0  0  0  0  0  0  0
   11.5743   37.0144   31.7024 C   0  0  0  0  0  0  0  0  0  0  0  0
   13.4844   37.2107   33.3241 N   0  0  0  0  0  0  0  0  0  0  0  0
   11.6297   36.3238   30.4740 O   0  0  0  0  0  0  0  0  0  0  0  0
   14.4802   36.3313   33.5727 C   0  0  0  0  0  0  0  0  0  0  0  0
   13.1138   37.6266   34.5692 C   0  0  0  0  0  0  0  0  0  0  0  0
   15.2075   35.6149   32.6739 N   0  0  0  0  0  0  0  0  0  0  0  0
   14.6761   36.2303   34.9181 C   0  0  0  0  0  0  0  0  0  0  0  0
   13.8220   37.0447   35.5785 N   0  0  0  0  0  0  0  0  0  0  0  0
   16.1643   34.7600   33.1547 C   0  0  0  0  0  0  0  0  0  0  0  0
   15.6529   35.3505   35.4130 C   0  0  0  0  0  0  0  0  0  0  0  0
   16.3798   34.6315   34.5042 N   0  0  0  0  0  0  0  0  0  0  0  0
   15.9003   35.1932   36.8090 N   0  0  0  0  0  0  0  0  0  0  0  0
    9.0099   45.4348   33.6673 H   0  0  0  0  0  0  0  0  0  0  0  0
   11.9348   45.6932   33.0924 H   0  0  0  0  0  0  0  0  0  0  0  0
   11.1136   46.1991   34.4882 H   0  0  0  0  0  0  0  0  0  0  0  0
    9.3507   43.8343   31.4765 H   0  0  0  0  0  0  0  0  0  0  0  0
   10.7303   44.8921   31.1676 H   0  0  0  0  0  0  0  0  0  0  0  0
    7.0110   44.7154   31.5812 H   0  0  0  0  0  0  0  0  0  0  0  0
   10.3476   47.1862   30.4145 H   0  0  0  0  0  0  0  0  0  0  0  0
    5.4643   46.3032   30.5002 H   0  0  0  0  0  0  0  0  0  0  0  0
    8.8228   48.7573   29.3441 H   0  0  0  0  0  0  0  0  0  0  0  0
    7.2769   49.7174   28.0403 H   0  0  0  0  0  0  0  0  0  0  0  0
    7.5703   50.5711   30.3162 H   0  0  0  0  0  0  0  0  0  0  0  0
    5.8089   50.8750   30.4873 H   0  0  0  0  0  0  0  0  0  0  0  0
    6.7872   51.8342   29.3060 H   0  0  0  0  0  0  0  0  0  0  0  0
    3.7695   50.0714   29.4884 H   0  0  0  0  0  0  0  0  0  0  0  0
    4.2466   51.3058   24.6784 H   0  0  0  0  0  0  0  0  0  0  0  0
    0.3931   52.5117   27.2063 H   0  0  0  0  0  0  0  0  0  0  0  0
   -0.0197   50.8018   26.7100 H   0  0  0  0  0  0  0  0  0  0  0  0
    9.8243   40.7216   31.7641 H   0  0  0  0  0  0  0  0  0  0  0  0
   11.3806   41.5528   31.4740 H   0  0  0  0  0  0  0  0  0  0  0  0
   11.7265   39.5311   30.3512 H   0  0  0  0  0  0  0  0  0  0  0  0
   10.1110   38.2746   32.6387 H   0  0  0  0  0  0  0  0  0  0  0  0
   13.6652   37.4518   31.2226 H   0  0  0  0  0  0  0  0  0  0  0  0
   10.0512   38.1142   29.7644 H   0  0  0  0  0  0  0  0  0  0  0  0
   11.2762   36.3141   32.5190 H   0  0  0  0  0  0  0  0  0  0  0  0
   10.8593   35.6977   30.4640 H   0  0  0  0  0  0  0  0  0  0  0  0
   12.3294   38.3518   34.7449 H   0  0  0  0  0  0  0  0  0  0  0  0
   16.7564   34.1780   32.4620 H   0  0  0  0  0  0  0  0  0  0  0  0
   15.3534   35.7359   37.5138 H   0  0  0  0  0  0  0  0  0  0  0  0
   16.6349   34.5300   37.1416 H   0  0  0  0  0  0  0  0  0  0  0  0
  1  2  2  0
  1  3  1  0
  3  4  1  0
  4  5  1  0
  6  1  1  0
  7  6  1  0
  6  8  1  0
  8  9  1  0
  9 10  2  0
 11  9  1  0
 10 12  1  0
 13 11  2  0
 12 14  2  0
 14 13  1  0
 14 15  1  0
 15 16  1  0
 16 17  1  0
 16 18  1  0
 18 19  2  0
 20 18  1  0
 19 21  1  0
 22 20  2  0
 20 23  1  0
 21 24  1  0
 21 25  2  0
 25 22  1  0
 23 26  1  0
 23 27  2  0
 24 28  1  0
 25 29  1  0
 28 29  1  0
  4 30  2  0
  4 31  1  0
 32 31  1  0
 32 33  1  0
 33 34  1  0
 33 35  1  0
 34 36  1  0
 35 37  1  0
 35 38  1  0
 38 36  1  0
 36 39  1  0
 38 40  1  0
 41 39  1  0
 42 39  1  0
 43 41  2  0
 41 44  1  0
 45 42  2  0
 46 43  1  0
 44 47  2  0
 44 45  1  0
 48 46  2  0
 48 47  1  0
 47 49  1  0
  6 50  1  1
  7 51  1  0
  7 52  1  0
  8 53  1  0
  8 54  1  0
 10 55  1  0
 11 56  1  0
 12 57  1  0
 13 58  1  0
 16 59  1  6
 17 60  1  0
 17 61  1  0
 17 62  1  0
 19 63  1  0
 22 64  1  0
 28 65  1  0
 28 66  1  0
 32 67  1  0
 32 68  1  0
 33 69  1  0
 35 70  1  0
 36 71  1  0
 37 72  1  0
 38 73  1  0
 40 74  1  0
 42 75  1  0
 46 76  1  0
 49 77  1  0
 49 78  1  0
M  CHG  3   5  -1  23   1  26  -1
M  END
>  <EmbedRMS>  (298) 
0.0827028534843

$$$$

     RDKit          3D

 78 83  0  0  0  0  0  0  0  0999 V2000
   10.2804   43.7664   33.8249 C   0  0  0  0  0  0  0  0  0  0  0  0
   11.4110   43.5918   34.3666 O   0  0  0  0  0  0  0  0  0  0  0  0
    9.3618   42.7250   33.7345 O   0  0  0  0  0  0  0  0  0  0  0  0
    9.8898   41.2267   34.2940 P   0  0  0  0  0  0  0  0  0  0  0  0
   10.3735   41.4566   35.8832 O   0  0  0  0  0  0  0  0  0  0  0  0
    9.9460   45.0736   33.2111 C   0  0  1  0  0  0  0  0  0  0  0  0
   11.0267   46.0292   33.4708 N   0  0  0  0  0  0  0  0  0  0  0  0
    9.7542   44.8541   31.6947 C   0  0  0  0  0  0  0  0  0  0  0  0
    8.7959   45.8409   31.0843 C   0  0  0  0  0  0  0  0  0  0  0  0
    7.4093   45.6002   31.1012 C   0  0  0  0  0  0  0  0  0  0  0  0
    9.2824   46.9878   30.4399 C   0  0  0  0  0  0  0  0  0  0  0  0
    6.5256   46.4992   30.4873 C   0  0  0  0  0  0  0  0  0  0  0  0
    8.3995   47.8875   29.8321 C   0  0  0  0  0  0  0  0  0  0  0  0
    7.0179   47.6546   29.8447 C   0  0  0  0  0  0  0  0  0  0  0  0
    6.1849   48.5969   29.2184 O   0  0  0  0  0  0  0  0  0  0  0  0
    4.7728   48.4771   29.0265 C   0  0  2  0  0  0  0  0  0  0  0  0
    4.4682   47.4601   27.9182 C   0  0  0  0  0  0  0  0  0  0  0  0
    4.2139   49.8407   28.6601 C   0  0  0  0  0  0  0  0  0  0  0  0
    4.7268   50.4955   27.5122 C   0  0  0  0  0  0  0  0  0  0  0  0
    3.1614   50.4674   29.4083 C   0  0  0  0  0  0  0  0  0  0  0  0
    4.1605   51.7035   27.1268 C   0  0  0  0  0  0  0  0  0  0  0  0
    2.6121   51.6882   28.9571 C   0  0  0  0  0  0  0  0  0  0  0  0
    2.6571   49.9011   30.6256 N   0  0  0  0  0  0  0  0  0  0  0  0
    4.4902   52.5014   26.0481 O   0  0  0  0  0  0  0  0  0  0  0  0
    3.1438   52.2714   27.8150 C   0  0  0  0  0  0  0  0  0  0  0  0
    1.3040   49.9189   30.8730 O   0  0  0  0  0  0  0  0  0  0  0  0
    3.4385   49.6608   31.5689 O   0  0  0  0  0  0  0  0  0  0  0  0
    3.6232   53.6437   26.0616 C   0  0  0  0  0  0  0  0  0  0  0  0
    2.7796   53.4571   27.2063 O   0  0  0  0  0  0  0  0  0  0  0  0
    8.8122   40.1844   34.2134 O   0  0  0  0  0  0  0  0  0  0  0  0
   11.2402   40.7944   33.3688 O   0  0  0  0  0  0  0  0  0  0  0  0
   10.9142   40.6898   31.9970 C   0  0  0  0  0  0  0  0  0  0  0  0
   11.5260   39.3884   31.4376 C   0  0  0  0  0  0  0  0  0  0  0  0
   12.7504   39.0888   32.0816 O   0  0  0  0  0  0  0  0  0  0  0  0
   10.6115   38.1909   31.6460 C   0  0  0  0  0  0  0  0  0  0  0  0
   12.9357   37.6812   32.0303 C   0  0  0  0  0  0  0  0  0  0  0  0
    9.6146   38.0858   30.6534 O   0  0  0  0  0  0  0  0  0  0  0  0
   11.5769   37.0148   31.7012 C   0  0  0  0  0  0  0  0  0  0  0  0
   13.4849   37.2112   33.3247 N   0  0  0  0  0  0  0  0  0  0  0  0
   11.6193   36.3261   30.4724 O   0  0  0  0  0  0  0  0  0  0  0  0
   14.4802   36.3313   33.5730 C   0  0  0  0  0  0  0  0  0  0  0  0
   13.1141   37.6268   34.5698 C   0  0  0  0  0  0  0  0  0  0  0  0
   15.2075   35.6151   32.6741 N   0  0  0  0  0  0  0  0  0  0  0  0
   14.6761   36.2300   34.9184 C   0  0  0  0  0  0  0  0  0  0  0  0
   13.8220   37.0445   35.5789 N   0  0  0  0  0  0  0  0  0  0  0  0
   16.1642   34.7600   33.1547 C   0  0  0  0  0  0  0  0  0  0  0  0
   15.6529   35.3503   35.4132 C   0  0  0  0  0  0  0  0  0  0  0  0
   16.3797   34.6314   34.5042 N   0  0  0  0  0  0  0  0  0  0  0  0
   15.9004   35.1930   36.8091 N   0  0  0  0  0  0  0  0  0  0  0  0
    8.9995   45.4381   33.6719 H   0  0  0  0  0  0  0  0  0  0  0  0
   11.0501   46.2277   34.4982 H   0  0  0  0  0  0  0  0  0  0  0  0
   10.7765   46.9369   33.0158 H   0  0  0  0  0  0  0  0  0  0  0  0
   10.7414   44.9079   31.1835 H   0  0  0  0  0  0  0  0  0  0  0  0
    9.3649   43.8352   31.4709 H   0  0  0  0  0  0  0  0  0  0  0  0
    7.0154   44.7162   31.5876 H   0  0  0  0  0  0  0  0  0  0  0  0
   10.3462   47.1881   30.4060 H   0  0  0  0  0  0  0  0  0  0  0  0
    5.4686   46.2822   30.5279 H   0  0  0  0  0  0  0  0  0  0  0  0
    8.7920   48.7700   29.3427 H   0  0  0  0  0  0  0  0  0  0  0  0
    4.3025   48.1054   29.9548 H   0  0  0  0  0  0  0  0  0  0  0  0
    5.0022   47.7217   26.9807 H   0  0  0  0  0  0  0  0  0  0  0  0
    4.7895   46.4436   28.2239 H   0  0  0  0  0  0  0  0  0  0  0  0
    3.3758   47.4306   27.7173 H   0  0  0  0  0  0  0  0  0  0  0  0
    5.5340   50.0697   26.9300 H   0  0  0  0  0  0  0  0  0  0  0  0
    1.8138   52.1799   29.4981 H   0  0  0  0  0  0  0  0  0  0  0  0
    3.0115   53.6726   25.1355 H   0  0  0  0  0  0  0  0  0  0  0  0
    4.2170   54.5753   26.1711 H   0  0  0  0  0  0  0  0  0  0  0  0
   11.3777   41.5526   31.4723 H   0  0  0  0  0  0  0  0  0  0  0  0
    9.8231   40.7190   31.7645 H   0  0  0  0  0  0  0  0  0  0  0  0
   11.7284   39.5311   30.3515 H   0  0  0  0  0  0  0  0  0  0  0  0
   10.1127   38.2733   32.6376 H   0  0  0  0  0  0  0  0  0  0  0  0
   13.6692   37.4566   31.2242 H   0  0  0  0  0  0  0  0  0  0  0  0
   10.0533   38.1117   29.7636 H   0  0  0  0  0  0  0  0  0  0  0  0
   11.2607   36.3148   32.5102 H   0  0  0  0  0  0  0  0  0  0  0  0
   12.1496   35.5023   30.6324 H   0  0  0  0  0  0  0  0  0  0  0  0
   12.3301   38.3524   34.7455 H   0  0  0  0  0  0  0  0  0  0  0  0
   16.7563   34.1781   32.4619 H   0  0  0  0  0  0  0  0  0  0  0  0
   15.3535   35.7357   37.5140 H   0  0  0  0  0  0  0  0  0  0  0  0
   16.6350   34.5298   37.1416 H   0  0  0  0  0  0  0  0  0  0  0  0
  1  2  2  0
  1  3  1  0
  3  4  1  0
  4  5  1  0
  6  1  1  0
  7  6  1  0
  6  8  1  0
  8  9  1  0
  9 10  2  0
 11  9  1  0
 10 12  1  0
 13 11  2  0
 12 14  2  0
 14 13  1  0
 14 15  1  0
 15 16  1  0
 16 17  1  0
 16 18  1  0
 18 19  2  0
 20 18  1  0
 19 21  1  0
 22 20  2  0
 20 23  1  0
 21 24  1  0
 21 25  2  0
 25 22  1  0
 23 26  1  0
 23 27  2  0
 24 28  1  0
 25 29  1  0
 28 29  1  0
  4 30  2  0
  4 31  1  0
 32 31  1  0
 32 33  1  0
 33 34  1  0
 33 35  1  0
 34 36  1  0
 35 37  1  0
 35 38  1  0
 38 36  1  0
 36 39  1  0
 38 40  1  0
 41 39  1  0
 42 39  1  0
 43 41  2  0
 41 44  1  0
 45 42  2  0
 46 43  1  0
 44 47  2  0
 44 45  1  0
 48 46  2  0
 48 47  1  0
 47 49  1  0
  6 50  1  1
  7 51  1  0
  7 52  1  0
  8 53  1  0
  8 54  1  0
 10 55  1  0
 11 56  1  0
 12 57  1  0
 13 58  1  0
 16 59  1  1
 17 60  1  0
 17 61  1  0
 17 62  1  0
 19 63  1  0
 22 64  1  0
 28 65  1  0
 28 66  1  0
 32 67  1  0
 32 68  1  0
 33 69  1  0
 35 70  1  0
 36 71  1  0
 37 72  1  0
 38 73  1  0
 40 74  1  0
 42 75  1  0
 46 76  1  0
 49 77  1  0
 49 78  1  0
M  CHG  3   5  -1  23   1  26  -1
M  END
>  <EmbedRMS>  (299) 
0.081431554093

$$$$

     RDKit          3D

 78 83  0  0  0  0  0  0  0  0999 V2000
   10.2835   43.7661   33.8257 C   0  0  0  0  0  0  0  0  0  0  0  0
   11.4102   43.5929   34.3752 O   0  0  0  0  0  0  0  0  0  0  0  0
    9.3637   42.7255   33.7350 O   0  0  0  0  0  0  0  0  0  0  0  0
    9.8902   41.2267   34.2942 P   0  0  0  0  0  0  0  0  0  0  0  0
   10.3736   41.4560   35.8836 O   0  0  0  0  0  0  0  0  0  0  0  0
    9.9547   45.0695   33.2037 C   0  0  1  0  0  0  0  0  0  0  0  0
   11.0274   46.0321   33.4757 N   0  0  0  0  0  0  0  0  0  0  0  0
    9.7465   44.8480   31.6878 C   0  0  0  0  0  0  0  0  0  0  0  0
    8.7923   45.8409   31.0848 C   0  0  0  0  0  0  0  0  0  0  0  0
    7.4058   45.6014   31.0988 C   0  0  0  0  0  0  0  0  0  0  0  0
    9.2821   46.9874   30.4422 C   0  0  0  0  0  0  0  0  0  0  0  0
    6.5272   46.5027   30.4832 C   0  0  0  0  0  0  0  0  0  0  0  0
    8.4034   47.8896   29.8307 C   0  0  0  0  0  0  0  0  0  0  0  0
    7.0132   47.6543   29.8485 C   0  0  0  0  0  0  0  0  0  0  0  0
    6.0826   48.5193   29.2487 O   0  0  0  0  0  0  0  0  0  0  0  0
    6.3727   49.7904   28.6582 C   0  0  2  0  0  0  0  0  0  0  0  0
    6.6498   50.8292   29.7508 C   0  0  0  0  0  0  0  0  0  0  0  0
    5.1863   50.2325   27.8221 C   0  0  0  0  0  0  0  0  0  0  0  0
    3.8837   50.0677   28.3556 C   0  0  0  0  0  0  0  0  0  0  0  0
    5.3385   50.7756   26.5017 C   0  0  0  0  0  0  0  0  0  0  0  0
    2.7938   50.4012   27.5626 C   0  0  0  0  0  0  0  0  0  0  0  0
    4.1905   51.0794   25.7353 C   0  0  0  0  0  0  0  0  0  0  0  0
    6.6310   51.0454   25.9362 N   0  0  0  0  0  0  0  0  0  0  0  0
    1.4495   50.3127   27.8690 O   0  0  0  0  0  0  0  0  0  0  0  0
    2.9405   50.8800   26.3060 C   0  0  0  0  0  0  0  0  0  0  0  0
    6.8358   50.8704   24.5870 O   0  0  0  0  0  0  0  0  0  0  0  0
    7.4912   51.6594   26.6002 O   0  0  0  0  0  0  0  0  0  0  0  0
    0.7055   50.7665   26.7299 C   0  0  0  0  0  0  0  0  0  0  0  0
    1.6964   51.1194   25.7549 O   0  0  0  0  0  0  0  0  0  0  0  0
    8.8121   40.1850   34.2131 O   0  0  0  0  0  0  0  0  0  0  0  0
   11.2404   40.7941   33.3690 O   0  0  0  0  0  0  0  0  0  0  0  0
   10.9143   40.6898   31.9972 C   0  0  0  0  0  0  0  0  0  0  0  0
   11.5261   39.3885   31.4376 C   0  0  0  0  0  0  0  0  0  0  0  0
   12.7504   39.0888   32.0816 O   0  0  0  0  0  0  0  0  0  0  0  0
   10.6115   38.1910   31.6460 C   0  0  0  0  0  0  0  0  0  0  0  0
   12.9357   37.6812   32.0303 C   0  0  0  0  0  0  0  0  0  0  0  0
    9.6146   38.0859   30.6534 O   0  0  0  0  0  0  0  0  0  0  0  0
   11.5769   37.0148   31.7012 C   0  0  0  0  0  0  0  0  0  0  0  0
   13.4849   37.2112   33.3247 N   0  0  0  0  0  0  0  0  0  0  0  0
   11.6193   36.3261   30.4724 O   0  0  0  0  0  0  0  0  0  0  0  0
   14.4802   36.3313   33.5730 C   0  0  0  0  0  0  0  0  0  0  0  0
   13.1141   37.6268   34.5698 C   0  0  0  0  0  0  0  0  0  0  0  0
   15.2075   35.6151   32.6741 N   0  0  0  0  0  0  0  0  0  0  0  0
   14.6761   36.2300   34.9184 C   0  0  0  0  0  0  0  0  0  0  0  0
   13.8220   37.0445   35.5789 N   0  0  0  0  0  0  0  0  0  0  0  0
   16.1642   34.7600   33.1547 C   0  0  0  0  0  0  0  0  0  0  0  0
   15.6529   35.3503   35.4131 C   0  0  0  0  0  0  0  0  0  0  0  0
   16.3798   34.6314   34.5042 N   0  0  0  0  0  0  0  0  0  0  0  0
   15.9004   35.1930   36.8090 N   0  0  0  0  0  0  0  0  0  0  0  0
    9.0121   45.4317   33.6716 H   0  0  0  0  0  0  0  0  0  0  0  0
   11.8906   45.7658   32.9470 H   0  0  0  0  0  0  0  0  0  0  0  0
   10.7260   46.9687   33.1213 H   0  0  0  0  0  0  0  0  0  0  0  0
   10.7229   44.8813   31.1558 H   0  0  0  0  0  0  0  0  0  0  0  0
    9.3413   43.8329   31.4764 H   0  0  0  0  0  0  0  0  0  0  0  0
    7.0085   44.7163   31.5804 H   0  0  0  0  0  0  0  0  0  0  0  0
   10.3469   47.1833   30.4101 H   0  0  0  0  0  0  0  0  0  0  0  0
    5.4627   46.3057   30.5008 H   0  0  0  0  0  0  0  0  0  0  0  0
    8.8220   48.7581   29.3438 H   0  0  0  0  0  0  0  0  0  0  0  0
    7.2653   49.6817   28.0113 H   0  0  0  0  0  0  0  0  0  0  0  0
    6.8334   51.8259   29.2965 H   0  0  0  0  0  0  0  0  0  0  0  0
    5.7852   50.9037   30.4443 H   0  0  0  0  0  0  0  0  0  0  0  0
    7.5461   50.5476   30.3398 H   0  0  0  0  0  0  0  0  0  0  0  0
    3.7251   49.6747   29.3520 H   0  0  0  0  0  0  0  0  0  0  0  0
    4.2715   51.4858   24.7354 H   0  0  0  0  0  0  0  0  0  0  0  0
    0.0604   49.9503   26.3426 H   0  0  0  0  0  0  0  0  0  0  0  0
    0.0977   51.6561   26.9978 H   0  0  0  0  0  0  0  0  0  0  0  0
    9.8233   40.7191   31.7647 H   0  0  0  0  0  0  0  0  0  0  0  0
   11.3779   41.5526   31.4727 H   0  0  0  0  0  0  0  0  0  0  0  0
   11.7283   39.5312   30.3515 H   0  0  0  0  0  0  0  0  0  0  0  0
   10.1127   38.2734   32.6376 H   0  0  0  0  0  0  0  0  0  0  0  0
   13.6693   37.4566   31.2242 H   0  0  0  0  0  0  0  0  0  0  0  0
   10.0534   38.1118   29.7636 H   0  0  0  0  0  0  0  0  0  0  0  0
   11.2607   36.3148   32.5102 H   0  0  0  0  0  0  0  0  0  0  0  0
   12.1496   35.5023   30.6324 H   0  0  0  0  0  0  0  0  0  0  0  0
   12.3301   38.3524   34.7455 H   0  0  0  0  0  0  0  0  0  0  0  0
   16.7563   34.1780   32.4619 H   0  0  0  0  0  0  0  0  0  0  0  0
   16.6351   34.5298   37.1415 H   0  0  0  0  0  0  0  0  0  0  0  0
   15.3536   35.7357   37.5140 H   0  0  0  0  0  0  0  0  0  0  0  0
  1  2  2  0
  1  3  1  0
  3  4  1  0
  4  5  1  0
  6  1  1  0
  7  6  1  0
  6  8  1  0
  8  9  1  0
  9 10  2  0
 11  9  1  0
 10 12  1  0
 13 11  2  0
 12 14  2  0
 14 13  1  0
 14 15  1  0
 15 16  1  0
 16 17  1  0
 16 18  1  0
 18 19  2  0
 20 18  1  0
 19 21  1  0
 22 20  2  0
 20 23  1  0
 21 24  1  0
 21 25  2  0
 25 22  1  0
 23 26  1  0
 23 27  2  0
 24 28  1  0
 25 29  1  0
 28 29  1  0
  4 30  2  0
  4 31  1  0
 32 31  1  0
 32 33  1  0
 33 34  1  0
 33 35  1  0
 34 36  1  0
 35 37  1  0
 35 38  1  0
 38 36  1  0
 36 39  1  0
 38 40  1  0
 41 39  1  0
 42 39  1  0
 43 41  2  0
 41 44  1  0
 45 42  2  0
 46 43  1  0
 44 47  2  0
 44 45  1  0
 48 46  2  0
 48 47  1  0
 47 49  1  0
  6 50  1  1
  7 51  1  0
  7 52  1  0
  8 53  1  0
  8 54  1  0
 10 55  1  0
 11 56  1  0
 12 57  1  0
 13 58  1  0
 16 59  1  6
 17 60  1  0
 17 61  1  0
 17 62  1  0
 19 63  1  0
 22 64  1  0
 28 65  1  0
 28 66  1  0
 32 67  1  0
 32 68  1  0
 33 69  1  0
 35 70  1  0
 36 71  1  0
 37 72  1  0
 38 73  1  0
 40 74  1  0
 42 75  1  0
 46 76  1  0
 49 77  1  0
 49 78  1  0
M  CHG  3   5  -1  23   1  26  -1
M  END
>  <EmbedRMS>  (300) 
0.0816098426134

$$$$

     RDKit          3D

 78 83  0  0  0  0  0  0  0  0999 V2000
   10.2834   43.7662   33.8257 C   0  0  0  0  0  0  0  0  0  0  0  0
   11.4101   43.5930   34.3752 O   0  0  0  0  0  0  0  0  0  0  0  0
    9.3635   42.7257   33.7352 O   0  0  0  0  0  0  0  0  0  0  0  0
    9.8899   41.2270   34.2947 P   0  0  0  0  0  0  0  0  0  0  0  0
   10.3732   41.4563   35.8841 O   0  0  0  0  0  0  0  0  0  0  0  0
    9.9548   45.0695   33.2034 C   0  0  1  0  0  0  0  0  0  0  0  0
   11.0274   46.0322   33.4758 N   0  0  0  0  0  0  0  0  0  0  0  0
    9.7472   44.8482   31.6874 C   0  0  0  0  0  0  0  0  0  0  0  0
    8.7927   45.8406   31.0840 C   0  0  0  0  0  0  0  0  0  0  0  0
    7.4061   45.6013   31.0995 C   0  0  0  0  0  0  0  0  0  0  0  0
    9.2817   46.9879   30.4424 C   0  0  0  0  0  0  0  0  0  0  0  0
    6.5241   46.5015   30.4858 C   0  0  0  0  0  0  0  0  0  0  0  0
    8.4004   47.8883   29.8334 C   0  0  0  0  0  0  0  0  0  0  0  0
    7.0184   47.6563   29.8438 C   0  0  0  0  0  0  0  0  0  0  0  0
    6.1871   48.5988   29.2157 O   0  0  0  0  0  0  0  0  0  0  0  0
    4.7757   48.4787   29.0192 C   0  0  2  0  0  0  0  0  0  0  0  0
    4.4745   47.4609   27.9108 C   0  0  0  0  0  0  0  0  0  0  0  0
    4.2179   49.8419   28.6510 C   0  0  0  0  0  0  0  0  0  0  0  0
    4.7288   50.4952   27.5015 C   0  0  0  0  0  0  0  0  0  0  0  0
    3.1681   50.4690   29.4010 C   0  0  0  0  0  0  0  0  0  0  0  0
    4.1629   51.7037   27.1168 C   0  0  0  0  0  0  0  0  0  0  0  0
    2.6196   51.6917   28.9516 C   0  0  0  0  0  0  0  0  0  0  0  0
    2.6744   49.9021   30.6226 N   0  0  0  0  0  0  0  0  0  0  0  0
    4.4909   52.5006   26.0368 O   0  0  0  0  0  0  0  0  0  0  0  0
    3.1489   52.2735   27.8075 C   0  0  0  0  0  0  0  0  0  0  0  0
    3.5462   49.6431   31.6550 O   0  0  0  0  0  0  0  0  0  0  0  0
    1.4477   49.8960   30.8532 O   0  0  0  0  0  0  0  0  0  0  0  0
    3.6257   53.6443   26.0522 C   0  0  0  0  0  0  0  0  0  0  0  0
    2.7849   53.4594   27.1993 O   0  0  0  0  0  0  0  0  0  0  0  0
    8.8120   40.1851   34.2133 O   0  0  0  0  0  0  0  0  0  0  0  0
   11.2403   40.7947   33.3700 O   0  0  0  0  0  0  0  0  0  0  0  0
   10.9144   40.6914   31.9982 C   0  0  0  0  0  0  0  0  0  0  0  0
   11.5270   39.3912   31.4385 C   0  0  0  0  0  0  0  0  0  0  0  0
   12.7520   39.0911   32.0836 O   0  0  0  0  0  0  0  0  0  0  0  0
   10.6113   38.1932   31.6451 C   0  0  0  0  0  0  0  0  0  0  0  0
   12.9413   37.6838   32.0297 C   0  0  0  0  0  0  0  0  0  0  0  0
    9.6064   38.0878   30.6599 O   0  0  0  0  0  0  0  0  0  0  0  0
   11.5822   37.0197   31.6877 C   0  0  0  0  0  0  0  0  0  0  0  0
   13.4840   37.2104   33.3254 N   0  0  0  0  0  0  0  0  0  0  0  0
   11.6179   36.3072   30.4690 O   0  0  0  0  0  0  0  0  0  0  0  0
   14.4797   36.3309   33.5738 C   0  0  0  0  0  0  0  0  0  0  0  0
   13.1136   37.6269   34.5702 C   0  0  0  0  0  0  0  0  0  0  0  0
   15.2074   35.6152   32.6747 N   0  0  0  0  0  0  0  0  0  0  0  0
   14.6756   36.2298   34.9190 C   0  0  0  0  0  0  0  0  0  0  0  0
   13.8217   37.0445   35.5793 N   0  0  0  0  0  0  0  0  0  0  0  0
   16.1643   34.7603   33.1551 C   0  0  0  0  0  0  0  0  0  0  0  0
   15.6528   35.3503   35.4136 C   0  0  0  0  0  0  0  0  0  0  0  0
   16.3798   34.6316   34.5046 N   0  0  0  0  0  0  0  0  0  0  0  0
   15.9004   35.1930   36.8094 N   0  0  0  0  0  0  0  0  0  0  0  0
    9.0121   45.4318   33.6710 H   0  0  0  0  0  0  0  0  0  0  0  0
   11.8908   45.7659   32.9475 H   0  0  0  0  0  0  0  0  0  0  0  0
   10.7261   46.9688   33.1213 H   0  0  0  0  0  0  0  0  0  0  0  0
   10.7237   44.8822   31.1557 H   0  0  0  0  0  0  0  0  0  0  0  0
    9.3427   43.8329   31.4758 H   0  0  0  0  0  0  0  0  0  0  0  0
    7.0106   44.7169   31.5839 H   0  0  0  0  0  0  0  0  0  0  0  0
   10.3459   47.1866   30.4112 H   0  0  0  0  0  0  0  0  0  0  0  0
    5.4668   46.2855   30.5251 H   0  0  0  0  0  0  0  0  0  0  0  0
    8.7942   48.7707   29.3450 H   0  0  0  0  0  0  0  0  0  0  0  0
    4.3017   48.1084   29.9464 H   0  0  0  0  0  0  0  0  0  0  0  0
    4.7935   46.4444   28.2190 H   0  0  0  0  0  0  0  0  0  0  0  0
    3.3829   47.4323   27.7055 H   0  0  0  0  0  0  0  0  0  0  0  0
    5.0127   47.7207   26.9753 H   0  0  0  0  0  0  0  0  0  0  0  0
    5.5344   50.0684   26.9179 H   0  0  0  0  0  0  0  0  0  0  0  0
    1.8242   52.1852   29.4952 H   0  0  0  0  0  0  0  0  0  0  0  0
    4.2213   54.5750   26.1596 H   0  0  0  0  0  0  0  0  0  0  0  0
    3.0115   53.6737   25.1278 H   0  0  0  0  0  0  0  0  0  0  0  0
   11.3776   41.5549   31.4744 H   0  0  0  0  0  0  0  0  0  0  0  0
    9.8234   40.7201   31.7654 H   0  0  0  0  0  0  0  0  0  0  0  0
   11.7311   39.5362   30.3532 H   0  0  0  0  0  0  0  0  0  0  0  0
   10.1203   38.2696   32.6410 H   0  0  0  0  0  0  0  0  0  0  0  0
   13.6850   37.4639   31.2321 H   0  0  0  0  0  0  0  0  0  0  0  0
   10.0250   38.1792   29.7654 H   0  0  0  0  0  0  0  0  0  0  0  0
   11.2757   36.3135   32.4907 H   0  0  0  0  0  0  0  0  0  0  0  0
   11.9837   36.9111   29.7708 H   0  0  0  0  0  0  0  0  0  0  0  0
   12.3307   38.3536   34.7458 H   0  0  0  0  0  0  0  0  0  0  0  0
   16.7566   34.1787   32.4623 H   0  0  0  0  0  0  0  0  0  0  0  0
   15.3535   35.7355   37.5144 H   0  0  0  0  0  0  0  0  0  0  0  0
   16.6353   34.5301   37.1419 H   0  0  0  0  0  0  0  0  0  0  0  0
  1  2  2  0
  1  3  1  0
  3  4  1  0
  4  5  1  0
  6  1  1  0
  7  6  1  0
  6  8  1  0
  8  9  1  0
  9 10  2  0
 11  9  1  0
 10 12  1  0
 13 11  2  0
 12 14  2  0
 14 13  1  0
 14 15  1  0
 15 16  1  0
 16 17  1  0
 16 18  1  0
 18 19  2  0
 20 18  1  0
 19 21  1  0
 22 20  2  0
 20 23  1  0
 21 24  1  0
 21 25  2  0
 25 22  1  0
 23 26  1  0
 23 27  2  0
 24 28  1  0
 25 29  1  0
 28 29  1  0
  4 30  2  0
  4 31  1  0
 32 31  1  0
 32 33  1  0
 33 34  1  0
 33 35  1  0
 34 36  1  0
 35 37  1  0
 35 38  1  0
 38 36  1  0
 36 39  1  0
 38 40  1  0
 41 39  1  0
 42 39  1  0
 43 41  2  0
 41 44  1  0
 45 42  2  0
 46 43  1  0
 44 47  2  0
 44 45  1  0
 48 46  2  0
 48 47  1  0
 47 49  1  0
  6 50  1  1
  7 51  1  0
  7 52  1  0
  8 53  1  0
  8 54  1  0
 10 55  1  0
 11 56  1  0
 12 57  1  0
 13 58  1  0
 16 59  1  1
 17 60  1  0
 17 61  1  0
 17 62  1  0
 19 63  1  0
 22 64  1  0
 28 65  1  0
 28 66  1  0
 32 67  1  0
 32 68  1  0
 33 69  1  0
 35 70  1  0
 36 71  1  0
 37 72  1  0
 38 73  1  0
 40 74  1  0
 42 75  1  0
 46 76  1  0
 49 77  1  0
 49 78  1  0
M  CHG  3   5  -1  23   1  26  -1
M  END
>  <EmbedRMS>  (301) 
0.0808167341633

$$$$

     RDKit          3D

 78 83  0  0  0  0  0  0  0  0999 V2000
   10.2837   43.7660   33.8257 C   0  0  0  0  0  0  0  0  0  0  0  0
   11.4104   43.5928   34.3754 O   0  0  0  0  0  0  0  0  0  0  0  0
    9.3641   42.7252   33.7347 O   0  0  0  0  0  0  0  0  0  0  0  0
    9.8908   41.2264   34.2939 P   0  0  0  0  0  0  0  0  0  0  0  0
   10.3732   41.4558   35.8835 O   0  0  0  0  0  0  0  0  0  0  0  0
    9.9550   45.0694   33.2039 C   0  0  1  0  0  0  0  0  0  0  0  0
   11.0275   46.0321   33.4762 N   0  0  0  0  0  0  0  0  0  0  0  0
    9.7473   44.8484   31.6880 C   0  0  0  0  0  0  0  0  0  0  0  0
    8.7929   45.8415   31.0858 C   0  0  0  0  0  0  0  0  0  0  0  0
    7.4073   45.6012   31.0982 C   0  0  0  0  0  0  0  0  0  0  0  0
    9.2815   46.9866   30.4421 C   0  0  0  0  0  0  0  0  0  0  0  0
    6.5256   46.5006   30.4833 C   0  0  0  0  0  0  0  0  0  0  0  0
    8.3998   47.8851   29.8314 C   0  0  0  0  0  0  0  0  0  0  0  0
    7.0156   47.6612   29.8467 C   0  0  0  0  0  0  0  0  0  0  0  0
    6.2022   48.6219   29.2100 O   0  0  0  0  0  0  0  0  0  0  0  0
    4.7746   48.8039   29.2442 C   0  0  2  0  0  0  0  0  0  0  0  0
    4.1445   48.5238   30.6210 C   0  0  0  0  0  0  0  0  0  0  0  0
    4.0651   48.0807   28.1028 C   0  0  0  0  0  0  0  0  0  0  0  0
    4.5150   46.7999   27.6915 C   0  0  0  0  0  0  0  0  0  0  0  0
    2.9806   48.6945   27.3811 C   0  0  0  0  0  0  0  0  0  0  0  0
    3.8908   46.1831   26.6159 C   0  0  0  0  0  0  0  0  0  0  0  0
    2.3956   48.0223   26.2845 C   0  0  0  0  0  0  0  0  0  0  0  0
    2.4798   49.9976   27.7187 N   0  0  0  0  0  0  0  0  0  0  0  0
    4.1670   44.9507   26.0553 O   0  0  0  0  0  0  0  0  0  0  0  0
    2.8767   46.7680   25.9420 C   0  0  0  0  0  0  0  0  0  0  0  0
    2.1108   50.8651   26.7166 O   0  0  0  0  0  0  0  0  0  0  0  0
    2.1501   50.2618   28.8920 O   0  0  0  0  0  0  0  0  0  0  0  0
    3.2632   44.7502   24.9602 C   0  0  0  0  0  0  0  0  0  0  0  0
    2.4568   45.9353   24.9226 O   0  0  0  0  0  0  0  0  0  0  0  0
    8.8126   40.1847   34.2121 O   0  0  0  0  0  0  0  0  0  0  0  0
   11.2420   40.7941   33.3697 O   0  0  0  0  0  0  0  0  0  0  0  0
   10.9187   40.6911   31.9971 C   0  0  0  0  0  0  0  0  0  0  0  0
   11.5172   39.3815   31.4407 C   0  0  0  0  0  0  0  0  0  0  0  0
   12.7493   39.0856   32.0728 O   0  0  0  0  0  0  0  0  0  0  0  0
   10.6023   38.1908   31.6665 C   0  0  0  0  0  0  0  0  0  0  0  0
   12.9319   37.6781   32.0281 C   0  0  0  0  0  0  0  0  0  0  0  0
    9.6392   38.0798   30.6452 O   0  0  0  0  0  0  0  0  0  0  0  0
   11.5715   37.0166   31.7056 C   0  0  0  0  0  0  0  0  0  0  0  0
   13.4847   37.2121   33.3235 N   0  0  0  0  0  0  0  0  0  0  0  0
   11.6187   36.3384   30.4695 O   0  0  0  0  0  0  0  0  0  0  0  0
   14.4801   36.3321   33.5724 C   0  0  0  0  0  0  0  0  0  0  0  0
   13.1137   37.6275   34.5687 C   0  0  0  0  0  0  0  0  0  0  0  0
   15.2073   35.6153   32.6738 N   0  0  0  0  0  0  0  0  0  0  0  0
   14.6759   36.2308   34.9179 C   0  0  0  0  0  0  0  0  0  0  0  0
   13.8216   37.0452   35.5781 N   0  0  0  0  0  0  0  0  0  0  0  0
   16.1640   34.7602   33.1546 C   0  0  0  0  0  0  0  0  0  0  0  0
   15.6526   35.3508   35.4129 C   0  0  0  0  0  0  0  0  0  0  0  0
   16.3794   34.6317   34.5041 N   0  0  0  0  0  0  0  0  0  0  0  0
   15.8999   35.1935   36.8088 N   0  0  0  0  0  0  0  0  0  0  0  0
    9.0123   45.4314   33.6717 H   0  0  0  0  0  0  0  0  0  0  0  0
   11.8910   45.7658   32.9479 H   0  0  0  0  0  0  0  0  0  0  0  0
   10.7262   46.9687   33.1218 H   0  0  0  0  0  0  0  0  0  0  0  0
    9.3426   43.8332   31.4760 H   0  0  0  0  0  0  0  0  0  0  0  0
   10.7237   44.8825   31.1561 H   0  0  0  0  0  0  0  0  0  0  0  0
    7.0126   44.7106   31.5719 H   0  0  0  0  0  0  0  0  0  0  0  0
   10.3457   47.1849   30.4091 H   0  0  0  0  0  0  0  0  0  0  0  0
    5.4794   46.2512   30.4848 H   0  0  0  0  0  0  0  0  0  0  0  0
    8.7959   48.7658   29.3417 H   0  0  0  0  0  0  0  0  0  0  0  0
    4.6474   49.8928   29.0716 H   0  0  0  0  0  0  0  0  0  0  0  0
    4.8951   48.6485   31.4295 H   0  0  0  0  0  0  0  0  0  0  0  0
    3.6995   47.5089   30.6705 H   0  0  0  0  0  0  0  0  0  0  0  0
    3.3259   49.2416   30.8287 H   0  0  0  0  0  0  0  0  0  0  0  0
    5.3414   46.2969   28.1610 H   0  0  0  0  0  0  0  0  0  0  0  0
    1.5812   48.4623   25.7235 H   0  0  0  0  0  0  0  0  0  0  0  0
    2.6269   43.8595   25.1455 H   0  0  0  0  0  0  0  0  0  0  0  0
    3.8282   44.6408   24.0109 H   0  0  0  0  0  0  0  0  0  0  0  0
    9.8300   40.7410   31.7613 H   0  0  0  0  0  0  0  0  0  0  0  0
   11.3969   41.5460   31.4729 H   0  0  0  0  0  0  0  0  0  0  0  0
   11.6975   39.5067   30.3481 H   0  0  0  0  0  0  0  0  0  0  0  0
   10.1076   38.2648   32.6645 H   0  0  0  0  0  0  0  0  0  0  0  0
   13.6621   37.4467   31.2209 H   0  0  0  0  0  0  0  0  0  0  0  0
    8.8975   38.6944   30.8831 H   0  0  0  0  0  0  0  0  0  0  0  0
   11.2806   36.3073   32.5170 H   0  0  0  0  0  0  0  0  0  0  0  0
   10.8492   35.7110   30.4586 H   0  0  0  0  0  0  0  0  0  0  0  0
   12.3290   38.3524   34.7444 H   0  0  0  0  0  0  0  0  0  0  0  0
   16.7559   34.1780   32.4619 H   0  0  0  0  0  0  0  0  0  0  0  0
   15.3532   35.7362   37.5137 H   0  0  0  0  0  0  0  0  0  0  0  0
   16.6344   34.5301   37.1414 H   0  0  0  0  0  0  0  0  0  0  0  0
  1  2  2  0
  1  3  1  0
  3  4  1  0
  4  5  1  0
  6  1  1  0
  7  6  1  0
  6  8  1  0
  8  9  1  0
  9 10  2  0
 11  9  1  0
 10 12  1  0
 13 11  2  0
 12 14  2  0
 14 13  1  0
 14 15  1  0
 15 16  1  0
 16 17  1  0
 16 18  1  0
 18 19  2  0
 20 18  1  0
 19 21  1  0
 22 20  2  0
 20 23  1  0
 21 24  1  0
 21 25  2  0
 25 22  1  0
 23 26  1  0
 23 27  2  0
 24 28  1  0
 25 29  1  0
 28 29  1  0
  4 30  2  0
  4 31  1  0
 32 31  1  0
 32 33  1  0
 33 34  1  0
 33 35  1  0
 34 36  1  0
 35 37  1  0
 35 38  1  0
 38 36  1  0
 36 39  1  0
 38 40  1  0
 41 39  1  0
 42 39  1  0
 43 41  2  0
 41 44  1  0
 45 42  2  0
 46 43  1  0
 44 47  2  0
 44 45  1  0
 48 46  2  0
 48 47  1  0
 47 49  1  0
  6 50  1  1
  7 51  1  0
  7 52  1  0
  8 53  1  0
  8 54  1  0
 10 55  1  0
 11 56  1  0
 12 57  1  0
 13 58  1  0
 16 59  1  6
 17 60  1  0
 17 61  1  0
 17 62  1  0
 19 63  1  0
 22 64  1  0
 28 65  1  0
 28 66  1  0
 32 67  1  0
 32 68  1  0
 33 69  1  0
 35 70  1  0
 36 71  1  0
 37 72  1  0
 38 73  1  0
 40 74  1  0
 42 75  1  0
 46 76  1  0
 49 77  1  0
 49 78  1  0
M  CHG  3   5  -1  23   1  26  -1
M  END
>  <EmbedRMS>  (302) 
0.0828863824431

$$$$

     RDKit          3D

 78 83  0  0  0  0  0  0  0  0999 V2000
   10.2805   43.7663   33.8250 C   0  0  0  0  0  0  0  0  0  0  0  0
   11.4111   43.5918   34.3668 O   0  0  0  0  0  0  0  0  0  0  0  0
    9.3621   42.7247   33.7344 O   0  0  0  0  0  0  0  0  0  0  0  0
    9.8903   41.2264   34.2936 P   0  0  0  0  0  0  0  0  0  0  0  0
   10.3732   41.4564   35.8831 O   0  0  0  0  0  0  0  0  0  0  0  0
    9.9459   45.0735   33.2113 C   0  0  1  0  0  0  0  0  0  0  0  0
   11.0267   46.0291   33.4707 N   0  0  0  0  0  0  0  0  0  0  0  0
    9.7535   44.8539   31.6951 C   0  0  0  0  0  0  0  0  0  0  0  0
    8.7954   45.8412   31.0851 C   0  0  0  0  0  0  0  0  0  0  0  0
    7.4089   45.6003   31.1005 C   0  0  0  0  0  0  0  0  0  0  0  0
    9.2828   46.9875   30.4397 C   0  0  0  0  0  0  0  0  0  0  0  0
    6.5286   46.5005   30.4847 C   0  0  0  0  0  0  0  0  0  0  0  0
    8.4026   47.8889   29.8294 C   0  0  0  0  0  0  0  0  0  0  0  0
    7.0129   47.6523   29.8492 C   0  0  0  0  0  0  0  0  0  0  0  0
    6.0806   48.5156   29.2506 O   0  0  0  0  0  0  0  0  0  0  0  0
    6.3644   49.7887   28.6646 C   0  0  2  0  0  0  0  0  0  0  0  0
    6.6707   50.8385   29.7395 C   0  0  0  0  0  0  0  0  0  0  0  0
    5.2077   50.2529   27.7951 C   0  0  0  0  0  0  0  0  0  0  0  0
    5.5213   51.0676   26.6792 C   0  0  0  0  0  0  0  0  0  0  0  0
    3.8359   49.8869   28.0286 C   0  0  0  0  0  0  0  0  0  0  0  0
    4.4957   51.4612   25.8305 C   0  0  0  0  0  0  0  0  0  0  0  0
    2.8378   50.3059   27.1187 C   0  0  0  0  0  0  0  0  0  0  0  0
    3.4361   49.1059   29.1655 N   0  0  0  0  0  0  0  0  0  0  0  0
    4.5741   52.2404   24.6922 O   0  0  0  0  0  0  0  0  0  0  0  0
    3.2116   51.0929   26.0384 C   0  0  0  0  0  0  0  0  0  0  0  0
    3.8078   49.4869   30.4332 O   0  0  0  0  0  0  0  0  0  0  0  0
    2.5698   48.2166   29.0348 O   0  0  0  0  0  0  0  0  0  0  0  0
    3.2517   52.3687   24.1522 C   0  0  0  0  0  0  0  0  0  0  0  0
    2.4124   51.6208   25.0426 O   0  0  0  0  0  0  0  0  0  0  0  0
    8.8128   40.1841   34.2125 O   0  0  0  0  0  0  0  0  0  0  0  0
   11.2416   40.7945   33.3692 O   0  0  0  0  0  0  0  0  0  0  0  0
   10.9178   40.6904   31.9968 C   0  0  0  0  0  0  0  0  0  0  0  0
   11.5181   39.3813   31.4408 C   0  0  0  0  0  0  0  0  0  0  0  0
   12.7497   39.0870   32.0746 O   0  0  0  0  0  0  0  0  0  0  0  0
   10.6045   38.1891   31.6655 C   0  0  0  0  0  0  0  0  0  0  0  0
   12.9344   37.6801   32.0290 C   0  0  0  0  0  0  0  0  0  0  0  0
    9.6418   38.0758   30.6441 O   0  0  0  0  0  0  0  0  0  0  0  0
   11.5741   37.0170   31.7045 C   0  0  0  0  0  0  0  0  0  0  0  0
   13.4851   37.2126   33.3241 N   0  0  0  0  0  0  0  0  0  0  0  0
   11.6079   36.3407   30.4680 O   0  0  0  0  0  0  0  0  0  0  0  0
   14.4801   36.3321   33.5727 C   0  0  0  0  0  0  0  0  0  0  0  0
   13.1140   37.6277   34.5693 C   0  0  0  0  0  0  0  0  0  0  0  0
   15.2073   35.6155   32.6739 N   0  0  0  0  0  0  0  0  0  0  0  0
   14.6758   36.2306   34.9182 C   0  0  0  0  0  0  0  0  0  0  0  0
   13.8217   37.0450   35.5785 N   0  0  0  0  0  0  0  0  0  0  0  0
   16.1639   34.7602   33.1546 C   0  0  0  0  0  0  0  0  0  0  0  0
   15.6526   35.3506   35.4130 C   0  0  0  0  0  0  0  0  0  0  0  0
   16.3794   34.6316   34.5041 N   0  0  0  0  0  0  0  0  0  0  0  0
   15.9001   35.1933   36.8089 N   0  0  0  0  0  0  0  0  0  0  0  0
    8.9996   45.4380   33.6725 H   0  0  0  0  0  0  0  0  0  0  0  0
   10.7763   46.9368   33.0157 H   0  0  0  0  0  0  0  0  0  0  0  0
   11.0504   46.2277   34.4980 H   0  0  0  0  0  0  0  0  0  0  0  0
    9.3635   43.8353   31.4716 H   0  0  0  0  0  0  0  0  0  0  0  0
   10.7406   44.9070   31.1836 H   0  0  0  0  0  0  0  0  0  0  0  0
    7.0132   44.7158   31.5843 H   0  0  0  0  0  0  0  0  0  0  0  0
   10.3472   47.1850   30.4052 H   0  0  0  0  0  0  0  0  0  0  0  0
    5.4642   46.3031   30.5037 H   0  0  0  0  0  0  0  0  0  0  0  0
    8.8192   48.7581   29.3418 H   0  0  0  0  0  0  0  0  0  0  0  0
    7.2564   49.6797   28.0095 H   0  0  0  0  0  0  0  0  0  0  0  0
    5.7815   51.0375   30.3705 H   0  0  0  0  0  0  0  0  0  0  0  0
    6.9821   51.7909   29.2599 H   0  0  0  0  0  0  0  0  0  0  0  0
    7.4964   50.4986   30.3969 H   0  0  0  0  0  0  0  0  0  0  0  0
    6.5387   51.3757   26.4724 H   0  0  0  0  0  0  0  0  0  0  0  0
    1.7978   50.0428   27.2637 H   0  0  0  0  0  0  0  0  0  0  0  0
    3.2100   51.9348   23.1312 H   0  0  0  0  0  0  0  0  0  0  0  0
    2.9435   53.4352   24.1403 H   0  0  0  0  0  0  0  0  0  0  0  0
    9.8289   40.7385   31.7615 H   0  0  0  0  0  0  0  0  0  0  0  0
   11.3944   41.5458   31.4720 H   0  0  0  0  0  0  0  0  0  0  0  0
   11.6994   39.5068   30.3484 H   0  0  0  0  0  0  0  0  0  0  0  0
   10.1090   38.2634   32.6632 H   0  0  0  0  0  0  0  0  0  0  0  0
   13.6662   37.4515   31.2224 H   0  0  0  0  0  0  0  0  0  0  0  0
    8.9008   38.6923   30.8794 H   0  0  0  0  0  0  0  0  0  0  0  0
   11.2650   36.3083   32.5087 H   0  0  0  0  0  0  0  0  0  0  0  0
   12.1372   35.5141   30.6163 H   0  0  0  0  0  0  0  0  0  0  0  0
   12.3297   38.3530   34.7450 H   0  0  0  0  0  0  0  0  0  0  0  0
   16.7558   34.1781   32.4619 H   0  0  0  0  0  0  0  0  0  0  0  0
   16.6346   34.5300   37.1414 H   0  0  0  0  0  0  0  0  0  0  0  0
   15.3533   35.7360   37.5138 H   0  0  0  0  0  0  0  0  0  0  0  0
  1  2  2  0
  1  3  1  0
  3  4  1  0
  4  5  1  0
  6  1  1  0
  7  6  1  0
  6  8  1  0
  8  9  1  0
  9 10  2  0
 11  9  1  0
 10 12  1  0
 13 11  2  0
 12 14  2  0
 14 13  1  0
 14 15  1  0
 15 16  1  0
 16 17  1  0
 16 18  1  0
 18 19  2  0
 20 18  1  0
 19 21  1  0
 22 20  2  0
 20 23  1  0
 21 24  1  0
 21 25  2  0
 25 22  1  0
 23 26  1  0
 23 27  2  0
 24 28  1  0
 25 29  1  0
 28 29  1  0
  4 30  2  0
  4 31  1  0
 32 31  1  0
 32 33  1  0
 33 34  1  0
 33 35  1  0
 34 36  1  0
 35 37  1  0
 35 38  1  0
 38 36  1  0
 36 39  1  0
 38 40  1  0
 41 39  1  0
 42 39  1  0
 43 41  2  0
 41 44  1  0
 45 42  2  0
 46 43  1  0
 44 47  2  0
 44 45  1  0
 48 46  2  0
 48 47  1  0
 47 49  1  0
  6 50  1  1
  7 51  1  0
  7 52  1  0
  8 53  1  0
  8 54  1  0
 10 55  1  0
 11 56  1  0
 12 57  1  0
 13 58  1  0
 16 59  1  6
 17 60  1  0
 17 61  1  0
 17 62  1  0
 19 63  1  0
 22 64  1  0
 28 65  1  0
 28 66  1  0
 32 67  1  0
 32 68  1  0
 33 69  1  0
 35 70  1  0
 36 71  1  0
 37 72  1  0
 38 73  1  0
 40 74  1  0
 42 75  1  0
 46 76  1  0
 49 77  1  0
 49 78  1  0
M  CHG  3   5  -1  23   1  26  -1
M  END
>  <EmbedRMS>  (303) 
0.0826485386507

$$$$

     RDKit          3D

 78 83  0  0  0  0  0  0  0  0999 V2000
   10.2837   43.7629   33.8275 C   0  0  0  0  0  0  0  0  0  0  0  0
   11.4101   43.5867   34.3768 O   0  0  0  0  0  0  0  0  0  0  0  0
    9.3628   42.7239   33.7357 O   0  0  0  0  0  0  0  0  0  0  0  0
    9.8890   41.2253   34.2949 P   0  0  0  0  0  0  0  0  0  0  0  0
   10.3723   41.4551   35.8843 O   0  0  0  0  0  0  0  0  0  0  0  0
    9.9546   45.0701   33.2058 C   0  0  1  0  0  0  0  0  0  0  0  0
   11.0195   46.0482   33.4562 N   0  0  0  0  0  0  0  0  0  0  0  0
    9.7497   44.8509   31.6917 C   0  0  0  0  0  0  0  0  0  0  0  0
    8.7938   45.8418   31.0862 C   0  0  0  0  0  0  0  0  0  0  0  0
    7.4054   45.6017   31.1015 C   0  0  0  0  0  0  0  0  0  0  0  0
    9.2835   46.9908   30.4450 C   0  0  0  0  0  0  0  0  0  0  0  0
    6.5254   46.5036   30.4869 C   0  0  0  0  0  0  0  0  0  0  0  0
    8.4020   47.8914   29.8356 C   0  0  0  0  0  0  0  0  0  0  0  0
    7.0220   47.6454   29.8434 C   0  0  0  0  0  0  0  0  0  0  0  0
    6.1454   48.5431   29.2268 O   0  0  0  0  0  0  0  0  0  0  0  0
    5.7858   48.4714   27.8432 C   0  0  2  0  0  0  0  0  0  0  0  0
    4.8792   47.2625   27.5699 C   0  0  0  0  0  0  0  0  0  0  0  0
    7.0184   48.5302   26.9455 C   0  0  0  0  0  0  0  0  0  0  0  0
    7.7236   47.3383   26.6326 C   0  0  0  0  0  0  0  0  0  0  0  0
    7.4941   49.7775   26.4148 C   0  0  0  0  0  0  0  0  0  0  0  0
    8.8145   47.4150   25.7778 C   0  0  0  0  0  0  0  0  0  0  0  0
    8.5968   49.7886   25.5310 C   0  0  0  0  0  0  0  0  0  0  0  0
    6.9005   51.0327   26.7841 N   0  0  0  0  0  0  0  0  0  0  0  0
    9.6325   46.3925   25.3370 O   0  0  0  0  0  0  0  0  0  0  0  0
    9.2275   48.5864   25.2437 C   0  0  0  0  0  0  0  0  0  0  0  0
    6.8456   52.0588   25.8689 O   0  0  0  0  0  0  0  0  0  0  0  0
    6.6488   51.2806   27.9815 O   0  0  0  0  0  0  0  0  0  0  0  0
   10.6216   46.9610   24.4679 C   0  0  0  0  0  0  0  0  0  0  0  0
   10.3267   48.3643   24.4365 O   0  0  0  0  0  0  0  0  0  0  0  0
    8.8112   40.1835   34.2132 O   0  0  0  0  0  0  0  0  0  0  0  0
   11.2397   40.7939   33.3702 O   0  0  0  0  0  0  0  0  0  0  0  0
   10.9143   40.6912   31.9983 C   0  0  0  0  0  0  0  0  0  0  0  0
   11.5270   39.3910   31.4385 C   0  0  0  0  0  0  0  0  0  0  0  0
   12.7520   39.0909   32.0835 O   0  0  0  0  0  0  0  0  0  0  0  0
   10.6114   38.1931   31.6452 C   0  0  0  0  0  0  0  0  0  0  0  0
   12.9413   37.6836   32.0295 C   0  0  0  0  0  0  0  0  0  0  0  0
    9.6064   38.0876   30.6600 O   0  0  0  0  0  0  0  0  0  0  0  0
   11.5822   37.0196   31.6875 C   0  0  0  0  0  0  0  0  0  0  0  0
   13.4841   37.2103   33.3253 N   0  0  0  0  0  0  0  0  0  0  0  0
   11.6179   36.3071   30.4688 O   0  0  0  0  0  0  0  0  0  0  0  0
   14.4797   36.3308   33.5737 C   0  0  0  0  0  0  0  0  0  0  0  0
   13.1137   37.6268   34.5700 C   0  0  0  0  0  0  0  0  0  0  0  0
   15.2075   35.6151   32.6746 N   0  0  0  0  0  0  0  0  0  0  0  0
   14.6756   36.2297   34.9190 C   0  0  0  0  0  0  0  0  0  0  0  0
   13.8217   37.0445   35.5792 N   0  0  0  0  0  0  0  0  0  0  0  0
   16.1645   34.7603   33.1551 C   0  0  0  0  0  0  0  0  0  0  0  0
   15.6528   35.3503   35.4136 C   0  0  0  0  0  0  0  0  0  0  0  0
   16.3799   34.6315   34.5046 N   0  0  0  0  0  0  0  0  0  0  0  0
   15.9004   35.1931   36.8095 N   0  0  0  0  0  0  0  0  0  0  0  0
    9.0096   45.4352   33.6662 H   0  0  0  0  0  0  0  0  0  0  0  0
   11.1131   46.1992   34.4875 H   0  0  0  0  0  0  0  0  0  0  0  0
   11.9345   45.6934   33.0918 H   0  0  0  0  0  0  0  0  0  0  0  0
   10.7299   44.8923   31.1666 H   0  0  0  0  0  0  0  0  0  0  0  0
    9.3503   43.8344   31.4758 H   0  0  0  0  0  0  0  0  0  0  0  0
    7.0085   44.7178   31.5856 H   0  0  0  0  0  0  0  0  0  0  0  0
   10.3474   47.1913   30.4164 H   0  0  0  0  0  0  0  0  0  0  0  0
    5.4602   46.3125   30.5066 H   0  0  0  0  0  0  0  0  0  0  0  0
    8.7914   48.7761   29.3482 H   0  0  0  0  0  0  0  0  0  0  0  0
    5.1453   49.3505   27.6235 H   0  0  0  0  0  0  0  0  0  0  0  0
    4.6341   47.2051   26.4878 H   0  0  0  0  0  0  0  0  0  0  0  0
    5.3535   46.3117   27.8855 H   0  0  0  0  0  0  0  0  0  0  0  0
    3.9318   47.3734   28.1391 H   0  0  0  0  0  0  0  0  0  0  0  0
    7.4420   46.3780   27.0406 H   0  0  0  0  0  0  0  0  0  0  0  0
    8.9737   50.7123   25.1108 H   0  0  0  0  0  0  0  0  0  0  0  0
   10.5324   46.5279   23.4496 H   0  0  0  0  0  0  0  0  0  0  0  0
   11.6383   46.7920   24.8808 H   0  0  0  0  0  0  0  0  0  0  0  0
   11.3780   41.5548   31.4751 H   0  0  0  0  0  0  0  0  0  0  0  0
    9.8234   40.7204   31.7650 H   0  0  0  0  0  0  0  0  0  0  0  0
   11.7310   39.5358   30.3531 H   0  0  0  0  0  0  0  0  0  0  0  0
   10.1205   38.2696   32.6412 H   0  0  0  0  0  0  0  0  0  0  0  0
   13.6851   37.4636   31.2320 H   0  0  0  0  0  0  0  0  0  0  0  0
   10.0249   38.1790   29.7655 H   0  0  0  0  0  0  0  0  0  0  0  0
   11.2759   36.3131   32.4904 H   0  0  0  0  0  0  0  0  0  0  0  0
   11.9835   36.9111   29.7705 H   0  0  0  0  0  0  0  0  0  0  0  0
   12.3307   38.3535   34.7456 H   0  0  0  0  0  0  0  0  0  0  0  0
   16.7566   34.1785   32.4623 H   0  0  0  0  0  0  0  0  0  0  0  0
   15.3533   35.7356   37.5144 H   0  0  0  0  0  0  0  0  0  0  0  0
   16.6353   34.5301   37.1420 H   0  0  0  0  0  0  0  0  0  0  0  0
  1  2  2  0
  1  3  1  0
  3  4  1  0
  4  5  1  0
  6  1  1  0
  7  6  1  0
  6  8  1  0
  8  9  1  0
  9 10  2  0
 11  9  1  0
 10 12  1  0
 13 11  2  0
 12 14  2  0
 14 13  1  0
 14 15  1  0
 15 16  1  0
 16 17  1  0
 16 18  1  0
 18 19  2  0
 20 18  1  0
 19 21  1  0
 22 20  2  0
 20 23  1  0
 21 24  1  0
 21 25  2  0
 25 22  1  0
 23 26  1  0
 23 27  2  0
 24 28  1  0
 25 29  1  0
 28 29  1  0
  4 30  2  0
  4 31  1  0
 32 31  1  0
 32 33  1  0
 33 34  1  0
 33 35  1  0
 34 36  1  0
 35 37  1  0
 35 38  1  0
 38 36  1  0
 36 39  1  0
 38 40  1  0
 41 39  1  0
 42 39  1  0
 43 41  2  0
 41 44  1  0
 45 42  2  0
 46 43  1  0
 44 47  2  0
 44 45  1  0
 48 46  2  0
 48 47  1  0
 47 49  1  0
  6 50  1  1
  7 51  1  0
  7 52  1  0
  8 53  1  0
  8 54  1  0
 10 55  1  0
 11 56  1  0
 12 57  1  0
 13 58  1  0
 16 59  1  6
 17 60  1  0
 17 61  1  0
 17 62  1  0
 19 63  1  0
 22 64  1  0
 28 65  1  0
 28 66  1  0
 32 67  1  0
 32 68  1  0
 33 69  1  0
 35 70  1  0
 36 71  1  0
 37 72  1  0
 38 73  1  0
 40 74  1  0
 42 75  1  0
 46 76  1  0
 49 77  1  0
 49 78  1  0
M  CHG  3   5  -1  23   1  26  -1
M  END
>  <EmbedRMS>  (304) 
0.0818682626594

$$$$

     RDKit          3D

 78 83  0  0  0  0  0  0  0  0999 V2000
   10.2837   43.7631   33.8280 C   0  0  0  0  0  0  0  0  0  0  0  0
   11.4100   43.5871   34.3774 O   0  0  0  0  0  0  0  0  0  0  0  0
    9.3635   42.7236   33.7352 O   0  0  0  0  0  0  0  0  0  0  0  0
    9.8901   41.2251   34.2944 P   0  0  0  0  0  0  0  0  0  0  0  0
   10.3727   41.4546   35.8840 O   0  0  0  0  0  0  0  0  0  0  0  0
    9.9545   45.0703   33.2067 C   0  0  1  0  0  0  0  0  0  0  0  0
   11.0186   46.0491   33.4578 N   0  0  0  0  0  0  0  0  0  0  0  0
    9.7511   44.8514   31.6927 C   0  0  0  0  0  0  0  0  0  0  0  0
    8.7949   45.8418   31.0869 C   0  0  0  0  0  0  0  0  0  0  0  0
    7.4085   45.5991   31.1000 C   0  0  0  0  0  0  0  0  0  0  0  0
    9.2825   46.9891   30.4434 C   0  0  0  0  0  0  0  0  0  0  0  0
    6.5265   46.4978   30.4848 C   0  0  0  0  0  0  0  0  0  0  0  0
    8.4004   47.8876   29.8321 C   0  0  0  0  0  0  0  0  0  0  0  0
    7.0189   47.6561   29.8489 C   0  0  0  0  0  0  0  0  0  0  0  0
    6.1782   48.6002   29.2353 O   0  0  0  0  0  0  0  0  0  0  0  0
    4.7492   48.5662   29.2556 C   0  0  2  0  0  0  0  0  0  0  0  0
    4.1867   49.6105   28.2905 C   0  0  0  0  0  0  0  0  0  0  0  0
    4.1891   48.7706   30.6565 C   0  0  0  0  0  0  0  0  0  0  0  0
    3.0021   48.0719   30.9841 C   0  0  0  0  0  0  0  0  0  0  0  0
    4.8303   49.5724   31.6659 C   0  0  0  0  0  0  0  0  0  0  0  0
    2.5141   48.1568   32.2807 C   0  0  0  0  0  0  0  0  0  0  0  0
    4.2914   49.6077   32.9720 C   0  0  0  0  0  0  0  0  0  0  0  0
    6.0198   50.3334   31.4044 N   0  0  0  0  0  0  0  0  0  0  0  0
    1.3942   47.5514   32.8182 O   0  0  0  0  0  0  0  0  0  0  0  0
    3.1341   48.8879   33.2339 C   0  0  0  0  0  0  0  0  0  0  0  0
    6.9868   50.4428   32.3769 O   0  0  0  0  0  0  0  0  0  0  0  0
    6.0965   51.0656   30.3968 O   0  0  0  0  0  0  0  0  0  0  0  0
    1.3075   47.9282   34.1995 C   0  0  0  0  0  0  0  0  0  0  0  0
    2.4383   48.7818   34.4234 O   0  0  0  0  0  0  0  0  0  0  0  0
    8.8121   40.1835   34.2119 O   0  0  0  0  0  0  0  0  0  0  0  0
   11.2420   40.7945   33.3705 O   0  0  0  0  0  0  0  0  0  0  0  0
   10.9186   40.6924   31.9981 C   0  0  0  0  0  0  0  0  0  0  0  0
   11.5174   39.3837   31.4421 C   0  0  0  0  0  0  0  0  0  0  0  0
   12.7506   39.0885   32.0750 O   0  0  0  0  0  0  0  0  0  0  0  0
   10.6023   38.1914   31.6653 C   0  0  0  0  0  0  0  0  0  0  0  0
   12.9382   37.6817   32.0279 C   0  0  0  0  0  0  0  0  0  0  0  0
    9.6372   38.0798   30.6463 O   0  0  0  0  0  0  0  0  0  0  0  0
   11.5776   37.0214   31.6934 C   0  0  0  0  0  0  0  0  0  0  0  0
   13.4845   37.2121   33.3244 N   0  0  0  0  0  0  0  0  0  0  0  0
   11.6086   36.3202   30.4676 O   0  0  0  0  0  0  0  0  0  0  0  0
   14.4799   36.3321   33.5732 C   0  0  0  0  0  0  0  0  0  0  0  0
   13.1137   37.6278   34.5693 C   0  0  0  0  0  0  0  0  0  0  0  0
   15.2074   35.6161   32.6744 N   0  0  0  0  0  0  0  0  0  0  0  0
   14.6753   36.2304   34.9186 C   0  0  0  0  0  0  0  0  0  0  0  0
   13.8211   37.0449   35.5787 N   0  0  0  0  0  0  0  0  0  0  0  0
   16.1634   34.7602   33.1550 C   0  0  0  0  0  0  0  0  0  0  0  0
   15.6522   35.3505   35.4133 C   0  0  0  0  0  0  0  0  0  0  0  0
   16.3788   34.6314   34.5044 N   0  0  0  0  0  0  0  0  0  0  0  0
   15.9002   35.1936   36.8091 N   0  0  0  0  0  0  0  0  0  0  0  0
    9.0093   45.4352   33.6667 H   0  0  0  0  0  0  0  0  0  0  0  0
   11.1112   46.2001   34.4892 H   0  0  0  0  0  0  0  0  0  0  0  0
   11.9339   45.6960   33.0925 H   0  0  0  0  0  0  0  0  0  0  0  0
   10.7318   44.8943   31.1689 H   0  0  0  0  0  0  0  0  0  0  0  0
    9.3525   43.8347   31.4763 H   0  0  0  0  0  0  0  0  0  0  0  0
    7.0137   44.7137   31.5838 H   0  0  0  0  0  0  0  0  0  0  0  0
   10.3462   47.1899   30.4119 H   0  0  0  0  0  0  0  0  0  0  0  0
    5.4688   46.2809   30.5145 H   0  0  0  0  0  0  0  0  0  0  0  0
    8.7928   48.7708   29.3441 H   0  0  0  0  0  0  0  0  0  0  0  0
    4.4281   47.5750   28.8627 H   0  0  0  0  0  0  0  0  0  0  0  0
    3.0841   49.5012   28.2140 H   0  0  0  0  0  0  0  0  0  0  0  0
    4.4164   50.6417   28.6235 H   0  0  0  0  0  0  0  0  0  0  0  0
    4.6215   49.4600   27.2796 H   0  0  0  0  0  0  0  0  0  0  0  0
    2.4855   47.4620   30.2532 H   0  0  0  0  0  0  0  0  0  0  0  0
    4.7542   50.1915   33.7567 H   0  0  0  0  0  0  0  0  0  0  0  0
    0.3645   48.4835   34.3881 H   0  0  0  0  0  0  0  0  0  0  0  0
    1.3712   47.0285   34.8471 H   0  0  0  0  0  0  0  0  0  0  0  0
    9.8298   40.7407   31.7635 H   0  0  0  0  0  0  0  0  0  0  0  0
   11.3971   41.5476   31.4733 H   0  0  0  0  0  0  0  0  0  0  0  0
   11.6984   39.5129   30.3501 H   0  0  0  0  0  0  0  0  0  0  0  0
   10.1102   38.2597   32.6650 H   0  0  0  0  0  0  0  0  0  0  0  0
   13.6766   37.4549   31.2272 H   0  0  0  0  0  0  0  0  0  0  0  0
    8.8960   38.6940   30.8867 H   0  0  0  0  0  0  0  0  0  0  0  0
   11.2788   36.3074   32.4924 H   0  0  0  0  0  0  0  0  0  0  0  0
   11.8856   36.9589   29.7591 H   0  0  0  0  0  0  0  0  0  0  0  0
   12.3306   38.3543   34.7445 H   0  0  0  0  0  0  0  0  0  0  0  0
   16.7548   34.1779   32.4621 H   0  0  0  0  0  0  0  0  0  0  0  0
   16.6348   34.5300   37.1409 H   0  0  0  0  0  0  0  0  0  0  0  0
   15.3530   35.7357   37.5142 H   0  0  0  0  0  0  0  0  0  0  0  0
  1  2  2  0
  1  3  1  0
  3  4  1  0
  4  5  1  0
  6  1  1  0
  7  6  1  0
  6  8  1  0
  8  9  1  0
  9 10  2  0
 11  9  1  0
 10 12  1  0
 13 11  2  0
 12 14  2  0
 14 13  1  0
 14 15  1  0
 15 16  1  0
 16 17  1  0
 16 18  1  0
 18 19  2  0
 20 18  1  0
 19 21  1  0
 22 20  2  0
 20 23  1  0
 21 24  1  0
 21 25  2  0
 25 22  1  0
 23 26  1  0
 23 27  2  0
 24 28  1  0
 25 29  1  0
 28 29  1  0
  4 30  2  0
  4 31  1  0
 32 31  1  0
 32 33  1  0
 33 34  1  0
 33 35  1  0
 34 36  1  0
 35 37  1  0
 35 38  1  0
 38 36  1  0
 36 39  1  0
 38 40  1  0
 41 39  1  0
 42 39  1  0
 43 41  2  0
 41 44  1  0
 45 42  2  0
 46 43  1  0
 44 47  2  0
 44 45  1  0
 48 46  2  0
 48 47  1  0
 47 49  1  0
  6 50  1  1
  7 51  1  0
  7 52  1  0
  8 53  1  0
  8 54  1  0
 10 55  1  0
 11 56  1  0
 12 57  1  0
 13 58  1  0
 16 59  1  6
 17 60  1  0
 17 61  1  0
 17 62  1  0
 19 63  1  0
 22 64  1  0
 28 65  1  0
 28 66  1  0
 32 67  1  0
 32 68  1  0
 33 69  1  0
 35 70  1  0
 36 71  1  0
 37 72  1  0
 38 73  1  0
 40 74  1  0
 42 75  1  0
 46 76  1  0
 49 77  1  0
 49 78  1  0
M  CHG  3   5  -1  23   1  26  -1
M  END
>  <EmbedRMS>  (305) 
0.0828993877886

$$$$

     RDKit          3D

 78 83  0  0  0  0  0  0  0  0999 V2000
   10.2804   43.7665   33.8248 C   0  0  0  0  0  0  0  0  0  0  0  0
   11.4110   43.5920   34.3666 O   0  0  0  0  0  0  0  0  0  0  0  0
    9.3619   42.7250   33.7343 O   0  0  0  0  0  0  0  0  0  0  0  0
    9.8898   41.2267   34.2939 P   0  0  0  0  0  0  0  0  0  0  0  0
   10.3735   41.4567   35.8832 O   0  0  0  0  0  0  0  0  0  0  0  0
    9.9461   45.0737   33.2110 C   0  0  1  0  0  0  0  0  0  0  0  0
   11.0267   46.0293   33.4708 N   0  0  0  0  0  0  0  0  0  0  0  0
    9.7543   44.8543   31.6947 C   0  0  0  0  0  0  0  0  0  0  0  0
    8.7960   45.8414   31.0849 C   0  0  0  0  0  0  0  0  0  0  0  0
    7.4095   45.5992   31.0999 C   0  0  0  0  0  0  0  0  0  0  0  0
    9.2824   46.9877   30.4390 C   0  0  0  0  0  0  0  0  0  0  0  0
    6.5263   46.4976   30.4848 C   0  0  0  0  0  0  0  0  0  0  0  0
    8.3993   47.8871   29.8308 C   0  0  0  0  0  0  0  0  0  0  0  0
    7.0173   47.6565   29.8500 C   0  0  0  0  0  0  0  0  0  0  0  0
    6.1797   48.5981   29.2296 O   0  0  0  0  0  0  0  0  0  0  0  0
    4.7518   48.5922   29.2633 C   0  0  2  0  0  0  0  0  0  0  0  0
    4.2130   49.5998   28.2471 C   0  0  0  0  0  0  0  0  0  0  0  0
    4.2236   48.8888   30.6607 C   0  0  0  0  0  0  0  0  0  0  0  0
    3.3329   47.9526   31.2423 C   0  0  0  0  0  0  0  0  0  0  0  0
    4.5348   50.0937   31.3815 C   0  0  0  0  0  0  0  0  0  0  0  0
    2.7943   48.2306   32.4913 C   0  0  0  0  0  0  0  0  0  0  0  0
    3.9420   50.3286   32.6420 C   0  0  0  0  0  0  0  0  0  0  0  0
    5.4124   51.0958   30.8510 N   0  0  0  0  0  0  0  0  0  0  0  0
    1.9175   47.4668   33.2374 O   0  0  0  0  0  0  0  0  0  0  0  0
    3.0846   49.3688   33.1609 C   0  0  0  0  0  0  0  0  0  0  0  0
    5.0478   52.4200   30.9264 O   0  0  0  0  0  0  0  0  0  0  0  0
    6.5985   50.8143   30.5883 O   0  0  0  0  0  0  0  0  0  0  0  0
    1.6420   48.1728   34.4551 C   0  0  0  0  0  0  0  0  0  0  0  0
    2.4071   49.3824   34.3650 O   0  0  0  0  0  0  0  0  0  0  0  0
    8.8123   40.1844   34.2133 O   0  0  0  0  0  0  0  0  0  0  0  0
   11.2402   40.7943   33.3688 O   0  0  0  0  0  0  0  0  0  0  0  0
   10.9141   40.6897   31.9970 C   0  0  0  0  0  0  0  0  0  0  0  0
   11.5261   39.3884   31.4376 C   0  0  0  0  0  0  0  0  0  0  0  0
   12.7504   39.0887   32.0817 O   0  0  0  0  0  0  0  0  0  0  0  0
   10.6115   38.1909   31.6460 C   0  0  0  0  0  0  0  0  0  0  0  0
   12.9357   37.6812   32.0303 C   0  0  0  0  0  0  0  0  0  0  0  0
    9.6145   38.0859   30.6534 O   0  0  0  0  0  0  0  0  0  0  0  0
   11.5769   37.0148   31.7012 C   0  0  0  0  0  0  0  0  0  0  0  0
   13.4848   37.2111   33.3247 N   0  0  0  0  0  0  0  0  0  0  0  0
   11.6192   36.3261   30.4724 O   0  0  0  0  0  0  0  0  0  0  0  0
   14.4802   36.3313   33.5730 C   0  0  0  0  0  0  0  0  0  0  0  0
   13.1141   37.6268   34.5698 C   0  0  0  0  0  0  0  0  0  0  0  0
   15.2074   35.6151   32.6741 N   0  0  0  0  0  0  0  0  0  0  0  0
   14.6761   36.2301   34.9185 C   0  0  0  0  0  0  0  0  0  0  0  0
   13.8221   37.0445   35.5789 N   0  0  0  0  0  0  0  0  0  0  0  0
   16.1642   34.7600   33.1547 C   0  0  0  0  0  0  0  0  0  0  0  0
   15.6529   35.3504   35.4132 C   0  0  0  0  0  0  0  0  0  0  0  0
   16.3797   34.6313   34.5042 N   0  0  0  0  0  0  0  0  0  0  0  0
   15.9004   35.1931   36.8091 N   0  0  0  0  0  0  0  0  0  0  0  0
    8.9996   45.4383   33.6718 H   0  0  0  0  0  0  0  0  0  0  0  0
   11.0500   46.2277   34.4982 H   0  0  0  0  0  0  0  0  0  0  0  0
   10.7764   46.9370   33.0159 H   0  0  0  0  0  0  0  0  0  0  0  0
   10.7416   44.9083   31.1835 H   0  0  0  0  0  0  0  0  0  0  0  0
    9.3651   43.8356   31.4707 H   0  0  0  0  0  0  0  0  0  0  0  0
    7.0159   44.7123   31.5811 H   0  0  0  0  0  0  0  0  0  0  0  0
   10.3462   47.1878   30.4045 H   0  0  0  0  0  0  0  0  0  0  0  0
    5.4710   46.2732   30.5056 H   0  0  0  0  0  0  0  0  0  0  0  0
    8.7909   48.7702   29.3420 H   0  0  0  0  0  0  0  0  0  0  0  0
    4.3991   47.5949   28.9178 H   0  0  0  0  0  0  0  0  0  0  0  0
    4.6035   50.6193   28.4406 H   0  0  0  0  0  0  0  0  0  0  0  0
    3.1026   49.6233   28.2817 H   0  0  0  0  0  0  0  0  0  0  0  0
    4.5252   49.2997   27.2242 H   0  0  0  0  0  0  0  0  0  0  0  0
    3.0565   47.0381   30.7328 H   0  0  0  0  0  0  0  0  0  0  0  0
    4.1546   51.2294   33.2036 H   0  0  0  0  0  0  0  0  0  0  0  0
    0.5594   48.4085   34.5259 H   0  0  0  0  0  0  0  0  0  0  0  0
    1.9732   47.5741   35.3295 H   0  0  0  0  0  0  0  0  0  0  0  0
   11.3775   41.5525   31.4723 H   0  0  0  0  0  0  0  0  0  0  0  0
    9.8231   40.7189   31.7644 H   0  0  0  0  0  0  0  0  0  0  0  0
   11.7284   39.5311   30.3515 H   0  0  0  0  0  0  0  0  0  0  0  0
   10.1127   38.2733   32.6376 H   0  0  0  0  0  0  0  0  0  0  0  0
   13.6692   37.4566   31.2242 H   0  0  0  0  0  0  0  0  0  0  0  0
   10.0532   38.1117   29.7635 H   0  0  0  0  0  0  0  0  0  0  0  0
   11.2607   36.3148   32.5102 H   0  0  0  0  0  0  0  0  0  0  0  0
   12.1495   35.5023   30.6325 H   0  0  0  0  0  0  0  0  0  0  0  0
   12.3302   38.3524   34.7455 H   0  0  0  0  0  0  0  0  0  0  0  0
   16.7561   34.1780   32.4619 H   0  0  0  0  0  0  0  0  0  0  0  0
   15.3535   35.7357   37.5140 H   0  0  0  0  0  0  0  0  0  0  0  0
   16.6350   34.5298   37.1416 H   0  0  0  0  0  0  0  0  0  0  0  0
  1  2  2  0
  1  3  1  0
  3  4  1  0
  4  5  1  0
  6  1  1  0
  7  6  1  0
  6  8  1  0
  8  9  1  0
  9 10  2  0
 11  9  1  0
 10 12  1  0
 13 11  2  0
 12 14  2  0
 14 13  1  0
 14 15  1  0
 15 16  1  0
 16 17  1  0
 16 18  1  0
 18 19  2  0
 20 18  1  0
 19 21  1  0
 22 20  2  0
 20 23  1  0
 21 24  1  0
 21 25  2  0
 25 22  1  0
 23 26  1  0
 23 27  2  0
 24 28  1  0
 25 29  1  0
 28 29  1  0
  4 30  2  0
  4 31  1  0
 32 31  1  0
 32 33  1  0
 33 34  1  0
 33 35  1  0
 34 36  1  0
 35 37  1  0
 35 38  1  0
 38 36  1  0
 36 39  1  0
 38 40  1  0
 41 39  1  0
 42 39  1  0
 43 41  2  0
 41 44  1  0
 45 42  2  0
 46 43  1  0
 44 47  2  0
 44 45  1  0
 48 46  2  0
 48 47  1  0
 47 49  1  0
  6 50  1  1
  7 51  1  0
  7 52  1  0
  8 53  1  0
  8 54  1  0
 10 55  1  0
 11 56  1  0
 12 57  1  0
 13 58  1  0
 16 59  1  6
 17 60  1  0
 17 61  1  0
 17 62  1  0
 19 63  1  0
 22 64  1  0
 28 65  1  0
 28 66  1  0
 32 67  1  0
 32 68  1  0
 33 69  1  0
 35 70  1  0
 36 71  1  0
 37 72  1  0
 38 73  1  0
 40 74  1  0
 42 75  1  0
 46 76  1  0
 49 77  1  0
 49 78  1  0
M  CHG  3   5  -1  23   1  26  -1
M  END
>  <EmbedRMS>  (306) 
0.0814477613583

$$$$

     RDKit          3D

 78 83  0  0  0  0  0  0  0  0999 V2000
   10.2836   43.7661   33.8256 C   0  0  0  0  0  0  0  0  0  0  0  0
   11.4102   43.5931   34.3754 O   0  0  0  0  0  0  0  0  0  0  0  0
    9.3640   42.7253   33.7346 O   0  0  0  0  0  0  0  0  0  0  0  0
    9.8908   41.2265   34.2939 P   0  0  0  0  0  0  0  0  0  0  0  0
   10.3732   41.4559   35.8836 O   0  0  0  0  0  0  0  0  0  0  0  0
    9.9547   45.0695   33.2036 C   0  0  1  0  0  0  0  0  0  0  0  0
   11.0272   46.0323   33.4760 N   0  0  0  0  0  0  0  0  0  0  0  0
    9.7472   44.8485   31.6876 C   0  0  0  0  0  0  0  0  0  0  0  0
    8.7926   45.8409   31.0843 C   0  0  0  0  0  0  0  0  0  0  0  0
    7.4059   45.6009   31.0993 C   0  0  0  0  0  0  0  0  0  0  0  0
    9.2817   46.9878   30.4417 C   0  0  0  0  0  0  0  0  0  0  0  0
    6.5248   46.5008   30.4846 C   0  0  0  0  0  0  0  0  0  0  0  0
    8.4003   47.8880   29.8319 C   0  0  0  0  0  0  0  0  0  0  0  0
    7.0185   47.6568   29.8468 C   0  0  0  0  0  0  0  0  0  0  0  0
    6.1810   48.5957   29.2226 O   0  0  0  0  0  0  0  0  0  0  0  0
    4.7517   48.5392   29.1893 C   0  0  2  0  0  0  0  0  0  0  0  0
    4.2409   49.6136   28.2323 C   0  0  0  0  0  0  0  0  0  0  0  0
    4.1611   48.7657   30.5714 C   0  0  0  0  0  0  0  0  0  0  0  0
    4.7808   49.7038   31.4343 C   0  0  0  0  0  0  0  0  0  0  0  0
    2.9423   48.1350   30.9851 C   0  0  0  0  0  0  0  0  0  0  0  0
    4.1924   49.9634   32.6651 C   0  0  0  0  0  0  0  0  0  0  0  0
    2.3815   48.4493   32.2431 C   0  0  0  0  0  0  0  0  0  0  0  0
    2.2565   47.2010   30.1407 N   0  0  0  0  0  0  0  0  0  0  0  0
    4.6204   50.8243   33.6573 O   0  0  0  0  0  0  0  0  0  0  0  0
    3.0435   49.3630   33.0524 C   0  0  0  0  0  0  0  0  0  0  0  0
    2.8739   46.0280   29.7744 O   0  0  0  0  0  0  0  0  0  0  0  0
    1.0253   47.3127   29.9691 O   0  0  0  0  0  0  0  0  0  0  0  0
    3.6798   50.7566   34.7378 C   0  0  0  0  0  0  0  0  0  0  0  0
    2.6886   49.8125   34.3097 O   0  0  0  0  0  0  0  0  0  0  0  0
    8.8127   40.1848   34.2122 O   0  0  0  0  0  0  0  0  0  0  0  0
   11.2420   40.7941   33.3696 O   0  0  0  0  0  0  0  0  0  0  0  0
   10.9186   40.6911   31.9971 C   0  0  0  0  0  0  0  0  0  0  0  0
   11.5172   39.3815   31.4407 C   0  0  0  0  0  0  0  0  0  0  0  0
   12.7492   39.0856   32.0728 O   0  0  0  0  0  0  0  0  0  0  0  0
   10.6023   38.1908   31.6665 C   0  0  0  0  0  0  0  0  0  0  0  0
   12.9319   37.6781   32.0281 C   0  0  0  0  0  0  0  0  0  0  0  0
    9.6393   38.0797   30.6452 O   0  0  0  0  0  0  0  0  0  0  0  0
   11.5715   37.0165   31.7056 C   0  0  0  0  0  0  0  0  0  0  0  0
   13.4846   37.2121   33.3235 N   0  0  0  0  0  0  0  0  0  0  0  0
   11.6187   36.3384   30.4694 O   0  0  0  0  0  0  0  0  0  0  0  0
   14.4800   36.3321   33.5724 C   0  0  0  0  0  0  0  0  0  0  0  0
   13.1137   37.6276   34.5687 C   0  0  0  0  0  0  0  0  0  0  0  0
   15.2073   35.6153   32.6738 N   0  0  0  0  0  0  0  0  0  0  0  0
   14.6758   36.2308   34.9179 C   0  0  0  0  0  0  0  0  0  0  0  0
   13.8216   37.0453   35.5781 N   0  0  0  0  0  0  0  0  0  0  0  0
   16.1640   34.7602   33.1546 C   0  0  0  0  0  0  0  0  0  0  0  0
   15.6526   35.3508   35.4129 C   0  0  0  0  0  0  0  0  0  0  0  0
   16.3794   34.6317   34.5041 N   0  0  0  0  0  0  0  0  0  0  0  0
   15.9000   35.1934   36.8088 N   0  0  0  0  0  0  0  0  0  0  0  0
    9.0119   45.4316   33.6713 H   0  0  0  0  0  0  0  0  0  0  0  0
   11.8906   45.7660   32.9476 H   0  0  0  0  0  0  0  0  0  0  0  0
   10.7259   46.9689   33.1217 H   0  0  0  0  0  0  0  0  0  0  0  0
    9.3427   43.8332   31.4758 H   0  0  0  0  0  0  0  0  0  0  0  0
   10.7237   44.8824   31.1558 H   0  0  0  0  0  0  0  0  0  0  0  0
    7.0102   44.7157   31.5821 H   0  0  0  0  0  0  0  0  0  0  0  0
   10.3460   47.1863   30.4100 H   0  0  0  0  0  0  0  0  0  0  0  0
    5.4671   46.2861   30.5139 H   0  0  0  0  0  0  0  0  0  0  0  0
    8.7933   48.7707   29.3435 H   0  0  0  0  0  0  0  0  0  0  0  0
    4.4531   47.5595   28.7684 H   0  0  0  0  0  0  0  0  0  0  0  0
    4.6601   49.4434   27.2180 H   0  0  0  0  0  0  0  0  0  0  0  0
    3.1324   49.5744   28.1664 H   0  0  0  0  0  0  0  0  0  0  0  0
    4.5493   50.6233   28.5791 H   0  0  0  0  0  0  0  0  0  0  0  0
    5.6863   50.2248   31.1507 H   0  0  0  0  0  0  0  0  0  0  0  0
    1.4619   47.9878   32.5796 H   0  0  0  0  0  0  0  0  0  0  0  0
    4.1801   50.3949   35.6605 H   0  0  0  0  0  0  0  0  0  0  0  0
    3.2150   51.7508   34.9051 H   0  0  0  0  0  0  0  0  0  0  0  0
    9.8298   40.7409   31.7614 H   0  0  0  0  0  0  0  0  0  0  0  0
   11.3967   41.5461   31.4728 H   0  0  0  0  0  0  0  0  0  0  0  0
   11.6975   39.5067   30.3480 H   0  0  0  0  0  0  0  0  0  0  0  0
   10.1077   38.2648   32.6645 H   0  0  0  0  0  0  0  0  0  0  0  0
   13.6621   37.4467   31.2208 H   0  0  0  0  0  0  0  0  0  0  0  0
    8.8975   38.6943   30.8830 H   0  0  0  0  0  0  0  0  0  0  0  0
   11.2805   36.3073   32.5170 H   0  0  0  0  0  0  0  0  0  0  0  0
   10.8492   35.7110   30.4585 H   0  0  0  0  0  0  0  0  0  0  0  0
   12.3291   38.3524   34.7444 H   0  0  0  0  0  0  0  0  0  0  0  0
   16.7560   34.1781   32.4619 H   0  0  0  0  0  0  0  0  0  0  0  0
   16.6345   34.5300   37.1413 H   0  0  0  0  0  0  0  0  0  0  0  0
   15.3532   35.7362   37.5137 H   0  0  0  0  0  0  0  0  0  0  0  0
  1  2  2  0
  1  3  1  0
  3  4  1  0
  4  5  1  0
  6  1  1  0
  7  6  1  0
  6  8  1  0
  8  9  1  0
  9 10  2  0
 11  9  1  0
 10 12  1  0
 13 11  2  0
 12 14  2  0
 14 13  1  0
 14 15  1  0
 15 16  1  0
 16 17  1  0
 16 18  1  0
 18 19  2  0
 20 18  1  0
 19 21  1  0
 22 20  2  0
 20 23  1  0
 21 24  1  0
 21 25  2  0
 25 22  1  0
 23 26  1  0
 23 27  2  0
 24 28  1  0
 25 29  1  0
 28 29  1  0
  4 30  2  0
  4 31  1  0
 32 31  1  0
 32 33  1  0
 33 34  1  0
 33 35  1  0
 34 36  1  0
 35 37  1  0
 35 38  1  0
 38 36  1  0
 36 39  1  0
 38 40  1  0
 41 39  1  0
 42 39  1  0
 43 41  2  0
 41 44  1  0
 45 42  2  0
 46 43  1  0
 44 47  2  0
 44 45  1  0
 48 46  2  0
 48 47  1  0
 47 49  1  0
  6 50  1  1
  7 51  1  0
  7 52  1  0
  8 53  1  0
  8 54  1  0
 10 55  1  0
 11 56  1  0
 12 57  1  0
 13 58  1  0
 16 59  1  6
 17 60  1  0
 17 61  1  0
 17 62  1  0
 19 63  1  0
 22 64  1  0
 28 65  1  0
 28 66  1  0
 32 67  1  0
 32 68  1  0
 33 69  1  0
 35 70  1  0
 36 71  1  0
 37 72  1  0
 38 73  1  0
 40 74  1  0
 42 75  1  0
 46 76  1  0
 49 77  1  0
 49 78  1  0
M  CHG  3   5  -1  23   1  26  -1
M  END
>  <EmbedRMS>  (307) 
0.0829333053213

$$$$

     RDKit          3D

 78 83  0  0  0  0  0  0  0  0999 V2000
   10.2798   43.7665   33.8243 C   0  0  0  0  0  0  0  0  0  0  0  0
   11.4107   43.5921   34.3655 O   0  0  0  0  0  0  0  0  0  0  0  0
    9.3615   42.7249   33.7336 O   0  0  0  0  0  0  0  0  0  0  0  0
    9.8894   41.2269   34.2941 P   0  0  0  0  0  0  0  0  0  0  0  0
   10.3727   41.4575   35.8834 O   0  0  0  0  0  0  0  0  0  0  0  0
    9.9450   45.0738   33.2113 C   0  0  1  0  0  0  0  0  0  0  0  0
   11.0258   46.0291   33.4715 N   0  0  0  0  0  0  0  0  0  0  0  0
    9.7535   44.8550   31.6946 C   0  0  0  0  0  0  0  0  0  0  0  0
    8.7955   45.8423   31.0849 C   0  0  0  0  0  0  0  0  0  0  0  0
    7.4085   45.5997   31.1000 C   0  0  0  0  0  0  0  0  0  0  0  0
    9.2824   46.9882   30.4361 C   0  0  0  0  0  0  0  0  0  0  0  0
    6.5266   46.4992   30.4856 C   0  0  0  0  0  0  0  0  0  0  0  0
    8.3992   47.8867   29.8261 C   0  0  0  0  0  0  0  0  0  0  0  0
    7.0181   47.6542   29.8581 C   0  0  0  0  0  0  0  0  0  0  0  0
    6.1469   48.5689   29.2552 O   0  0  0  0  0  0  0  0  0  0  0  0
    5.4010   49.5448   29.9913 C   0  0  2  0  0  0  0  0  0  0  0  0
    6.3604   50.5028   30.7160 C   0  0  0  0  0  0  0  0  0  0  0  0
    4.3517   48.8696   30.8754 C   0  0  0  0  0  0  0  0  0  0  0  0
    4.4036   48.9816   32.2928 C   0  0  0  0  0  0  0  0  0  0  0  0
    3.3318   48.0433   30.2859 C   0  0  0  0  0  0  0  0  0  0  0  0
    3.4764   48.2799   33.0525 C   0  0  0  0  0  0  0  0  0  0  0  0
    2.4248   47.3447   31.1144 C   0  0  0  0  0  0  0  0  0  0  0  0
    3.2321   47.8604   28.8635 N   0  0  0  0  0  0  0  0  0  0  0  0
    3.3507   48.2376   34.4287 O   0  0  0  0  0  0  0  0  0  0  0  0
    2.5308   47.4952   32.4891 C   0  0  0  0  0  0  0  0  0  0  0  0
    2.8863   46.6287   28.3573 O   0  0  0  0  0  0  0  0  0  0  0  0
    3.2406   48.8433   28.0953 O   0  0  0  0  0  0  0  0  0  0  0  0
    2.2530   47.3701   34.7470 C   0  0  0  0  0  0  0  0  0  0  0  0
    1.7579   46.9174   33.4790 O   0  0  0  0  0  0  0  0  0  0  0  0
    8.8117   40.1847   34.2131 O   0  0  0  0  0  0  0  0  0  0  0  0
   11.2401   40.7943   33.3699 O   0  0  0  0  0  0  0  0  0  0  0  0
   10.9154   40.6919   31.9978 C   0  0  0  0  0  0  0  0  0  0  0  0
   11.5274   39.3915   31.4382 C   0  0  0  0  0  0  0  0  0  0  0  0
   12.7522   39.0910   32.0838 O   0  0  0  0  0  0  0  0  0  0  0  0
   10.6116   38.1937   31.6451 C   0  0  0  0  0  0  0  0  0  0  0  0
   12.9416   37.6837   32.0297 C   0  0  0  0  0  0  0  0  0  0  0  0
    9.6068   38.0883   30.6599 O   0  0  0  0  0  0  0  0  0  0  0  0
   11.5823   37.0200   31.6873 C   0  0  0  0  0  0  0  0  0  0  0  0
   13.4840   37.2097   33.3255 N   0  0  0  0  0  0  0  0  0  0  0  0
   11.6183   36.3081   30.4685 O   0  0  0  0  0  0  0  0  0  0  0  0
   14.4792   36.3297   33.5740 C   0  0  0  0  0  0  0  0  0  0  0  0
   13.1151   37.6276   34.5702 C   0  0  0  0  0  0  0  0  0  0  0  0
   15.2072   35.6141   32.6751 N   0  0  0  0  0  0  0  0  0  0  0  0
   14.6757   36.2293   34.9192 C   0  0  0  0  0  0  0  0  0  0  0  0
   13.8235   37.0457   35.5794 N   0  0  0  0  0  0  0  0  0  0  0  0
   16.1640   34.7590   33.1559 C   0  0  0  0  0  0  0  0  0  0  0  0
   15.6527   35.3497   35.4140 C   0  0  0  0  0  0  0  0  0  0  0  0
   16.3793   34.6304   34.5053 N   0  0  0  0  0  0  0  0  0  0  0  0
   15.9002   35.1934   36.8099 N   0  0  0  0  0  0  0  0  0  0  0  0
    8.9986   45.4375   33.6734 H   0  0  0  0  0  0  0  0  0  0  0  0
   11.0497   46.2278   34.4989 H   0  0  0  0  0  0  0  0  0  0  0  0
   10.7767   46.9367   33.0157 H   0  0  0  0  0  0  0  0  0  0  0  0
   10.7400   44.9102   31.1826 H   0  0  0  0  0  0  0  0  0  0  0  0
    9.3660   43.8355   31.4701 H   0  0  0  0  0  0  0  0  0  0  0  0
    7.0150   44.7119   31.5789 H   0  0  0  0  0  0  0  0  0  0  0  0
   10.3459   47.1880   30.3991 H   0  0  0  0  0  0  0  0  0  0  0  0
    5.4672   46.2883   30.4931 H   0  0  0  0  0  0  0  0  0  0  0  0
    8.7879   48.7697   29.3354 H   0  0  0  0  0  0  0  0  0  0  0  0
    4.8644   50.1841   29.2611 H   0  0  0  0  0  0  0  0  0  0  0  0
    6.9867   49.9594   31.4554 H   0  0  0  0  0  0  0  0  0  0  0  0
    5.7901   51.3051   31.2300 H   0  0  0  0  0  0  0  0  0  0  0  0
    7.0374   50.9800   29.9754 H   0  0  0  0  0  0  0  0  0  0  0  0
    5.1439   49.5767   32.8075 H   0  0  0  0  0  0  0  0  0  0  0  0
    1.6554   46.7080   30.6958 H   0  0  0  0  0  0  0  0  0  0  0  0
    2.6068   46.5082   35.3507 H   0  0  0  0  0  0  0  0  0  0  0  0
    1.4627   47.9314   35.2890 H   0  0  0  0  0  0  0  0  0  0  0  0
   11.3798   41.5557   31.4750 H   0  0  0  0  0  0  0  0  0  0  0  0
    9.8247   40.7210   31.7645 H   0  0  0  0  0  0  0  0  0  0  0  0
   11.7315   39.5369   30.3528 H   0  0  0  0  0  0  0  0  0  0  0  0
   10.1205   38.2707   32.6410 H   0  0  0  0  0  0  0  0  0  0  0  0
   13.6859   37.4646   31.2322 H   0  0  0  0  0  0  0  0  0  0  0  0
   10.0257   38.1803   29.7657 H   0  0  0  0  0  0  0  0  0  0  0  0
   11.2752   36.3135   32.4896 H   0  0  0  0  0  0  0  0  0  0  0  0
   11.9874   36.9122   29.7722 H   0  0  0  0  0  0  0  0  0  0  0  0
   12.3334   38.3553   34.7457 H   0  0  0  0  0  0  0  0  0  0  0  0
   16.7561   34.1767   32.4637 H   0  0  0  0  0  0  0  0  0  0  0  0
   15.3513   35.7364   37.5127 H   0  0  0  0  0  0  0  0  0  0  0  0
   16.6344   34.5304   37.1443 H   0  0  0  0  0  0  0  0  0  0  0  0
  1  2  2  0
  1  3  1  0
  3  4  1  0
  4  5  1  0
  6  1  1  0
  7  6  1  0
  6  8  1  0
  8  9  1  0
  9 10  2  0
 11  9  1  0
 10 12  1  0
 13 11  2  0
 12 14  2  0
 14 13  1  0
 14 15  1  0
 15 16  1  0
 16 17  1  0
 16 18  1  0
 18 19  2  0
 20 18  1  0
 19 21  1  0
 22 20  2  0
 20 23  1  0
 21 24  1  0
 21 25  2  0
 25 22  1  0
 23 26  1  0
 23 27  2  0
 24 28  1  0
 25 29  1  0
 28 29  1  0
  4 30  2  0
  4 31  1  0
 32 31  1  0
 32 33  1  0
 33 34  1  0
 33 35  1  0
 34 36  1  0
 35 37  1  0
 35 38  1  0
 38 36  1  0
 36 39  1  0
 38 40  1  0
 41 39  1  0
 42 39  1  0
 43 41  2  0
 41 44  1  0
 45 42  2  0
 46 43  1  0
 44 47  2  0
 44 45  1  0
 48 46  2  0
 48 47  1  0
 47 49  1  0
  6 50  1  1
  7 51  1  0
  7 52  1  0
  8 53  1  0
  8 54  1  0
 10 55  1  0
 11 56  1  0
 12 57  1  0
 13 58  1  0
 16 59  1  6
 17 60  1  0
 17 61  1  0
 17 62  1  0
 19 63  1  0
 22 64  1  0
 28 65  1  0
 28 66  1  0
 32 67  1  0
 32 68  1  0
 33 69  1  0
 35 70  1  0
 36 71  1  0
 37 72  1  0
 38 73  1  0
 40 74  1  0
 42 75  1  0
 46 76  1  0
 49 77  1  0
 49 78  1  0
M  CHG  3   5  -1  23   1  26  -1
M  END
>  <EmbedRMS>  (308) 
0.0807335921184

$$$$

     RDKit          3D

 78 83  0  0  0  0  0  0  0  0999 V2000
   10.2838   43.7627   33.8277 C   0  0  0  0  0  0  0  0  0  0  0  0
   11.4103   43.5863   34.3766 O   0  0  0  0  0  0  0  0  0  0  0  0
    9.3628   42.7238   33.7357 O   0  0  0  0  0  0  0  0  0  0  0  0
    9.8893   41.2251   34.2943 P   0  0  0  0  0  0  0  0  0  0  0  0
   10.3731   41.4545   35.8837 O   0  0  0  0  0  0  0  0  0  0  0  0
    9.9549   45.0700   33.2063 C   0  0  1  0  0  0  0  0  0  0  0  0
   11.0198   46.0481   33.4571 N   0  0  0  0  0  0  0  0  0  0  0  0
    9.7507   44.8510   31.6922 C   0  0  0  0  0  0  0  0  0  0  0  0
    8.7946   45.8417   31.0866 C   0  0  0  0  0  0  0  0  0  0  0  0
    7.4079   45.6007   31.1006 C   0  0  0  0  0  0  0  0  0  0  0  0
    9.2827   46.9892   30.4449 C   0  0  0  0  0  0  0  0  0  0  0  0
    6.5254   46.5002   30.4860 C   0  0  0  0  0  0  0  0  0  0  0  0
    8.4008   47.8883   29.8341 C   0  0  0  0  0  0  0  0  0  0  0  0
    7.0191   47.6551   29.8439 C   0  0  0  0  0  0  0  0  0  0  0  0
    6.1868   48.5959   29.2145 O   0  0  0  0  0  0  0  0  0  0  0  0
    4.7738   48.4750   29.0223 C   0  0  2  0  0  0  0  0  0  0  0  0
    4.4768   47.4587   27.9138 C   0  0  0  0  0  0  0  0  0  0  0  0
    4.2079   49.8295   28.6400 C   0  0  0  0  0  0  0  0  0  0  0  0
    4.8973   50.6025   27.6726 C   0  0  0  0  0  0  0  0  0  0  0  0
    3.0268   50.3662   29.2530 C   0  0  0  0  0  0  0  0  0  0  0  0
    4.4232   51.8738   27.3773 C   0  0  0  0  0  0  0  0  0  0  0  0
    2.6017   51.6742   28.9238 C   0  0  0  0  0  0  0  0  0  0  0  0
    2.2413   49.5971   30.1775 N   0  0  0  0  0  0  0  0  0  0  0  0
    4.9363   52.7962   26.4858 O   0  0  0  0  0  0  0  0  0  0  0  0
    3.3275   52.3890   27.9803 C   0  0  0  0  0  0  0  0  0  0  0  0
    1.8720   48.3094   29.8641 O   0  0  0  0  0  0  0  0  0  0  0  0
    1.7003   50.1578   31.1529 O   0  0  0  0  0  0  0  0  0  0  0  0
    4.1071   53.9654   26.5329 C   0  0  0  0  0  0  0  0  0  0  0  0
    3.0918   53.6627   27.4996 O   0  0  0  0  0  0  0  0  0  0  0  0
    8.8113   40.1835   34.2130 O   0  0  0  0  0  0  0  0  0  0  0  0
   11.2397   40.7943   33.3684 O   0  0  0  0  0  0  0  0  0  0  0  0
   10.9125   40.6875   31.9969 C   0  0  0  0  0  0  0  0  0  0  0  0
   11.5169   39.3810   31.4420 C   0  0  0  0  0  0  0  0  0  0  0  0
   12.7500   39.0880   32.0758 O   0  0  0  0  0  0  0  0  0  0  0  0
   10.6043   38.1892   31.6658 C   0  0  0  0  0  0  0  0  0  0  0  0
   12.9395   37.6813   32.0279 C   0  0  0  0  0  0  0  0  0  0  0  0
    9.6353   38.0950   30.6499 O   0  0  0  0  0  0  0  0  0  0  0  0
   11.5804   37.0190   31.6934 C   0  0  0  0  0  0  0  0  0  0  0  0
   13.4851   37.2119   33.3244 N   0  0  0  0  0  0  0  0  0  0  0  0
   11.6118   36.3188   30.4673 O   0  0  0  0  0  0  0  0  0  0  0  0
   14.4801   36.3317   33.5732 C   0  0  0  0  0  0  0  0  0  0  0  0
   13.1139   37.6277   34.5692 C   0  0  0  0  0  0  0  0  0  0  0  0
   15.2076   35.6154   32.6744 N   0  0  0  0  0  0  0  0  0  0  0  0
   14.6756   36.2303   34.9186 C   0  0  0  0  0  0  0  0  0  0  0  0
   13.8215   37.0451   35.5786 N   0  0  0  0  0  0  0  0  0  0  0  0
   16.1642   34.7602   33.1551 C   0  0  0  0  0  0  0  0  0  0  0  0
   15.6526   35.3505   35.4134 C   0  0  0  0  0  0  0  0  0  0  0  0
   16.3795   34.6316   34.5045 N   0  0  0  0  0  0  0  0  0  0  0  0
   15.9001   35.1933   36.8093 N   0  0  0  0  0  0  0  0  0  0  0  0
    9.0098   45.4350   33.6668 H   0  0  0  0  0  0  0  0  0  0  0  0
   11.9350   45.6933   33.0929 H   0  0  0  0  0  0  0  0  0  0  0  0
   11.1132   46.1993   34.4884 H   0  0  0  0  0  0  0  0  0  0  0  0
    9.3520   43.8344   31.4758 H   0  0  0  0  0  0  0  0  0  0  0  0
   10.7311   44.8930   31.1676 H   0  0  0  0  0  0  0  0  0  0  0  0
    7.0130   44.7160   31.5847 H   0  0  0  0  0  0  0  0  0  0  0  0
   10.3466   47.1898   30.4158 H   0  0  0  0  0  0  0  0  0  0  0  0
    5.4680   46.2834   30.5234 H   0  0  0  0  0  0  0  0  0  0  0  0
    8.7941   48.7709   29.3455 H   0  0  0  0  0  0  0  0  0  0  0  0
    4.3169   48.1344   29.9722 H   0  0  0  0  0  0  0  0  0  0  0  0
    3.3833   47.3982   27.7296 H   0  0  0  0  0  0  0  0  0  0  0  0
    4.8349   46.4497   28.2025 H   0  0  0  0  0  0  0  0  0  0  0  0
    4.9845   47.7526   26.9704 H   0  0  0  0  0  0  0  0  0  0  0  0
    5.7863   50.2303   27.1790 H   0  0  0  0  0  0  0  0  0  0  0  0
    1.7166   52.1085   29.3707 H   0  0  0  0  0  0  0  0  0  0  0  0
    4.7003   54.8440   26.8626 H   0  0  0  0  0  0  0  0  0  0  0  0
    3.6473   54.1504   25.5395 H   0  0  0  0  0  0  0  0  0  0  0  0
    9.8216   40.7222   31.7644 H   0  0  0  0  0  0  0  0  0  0  0  0
   11.3811   41.5455   31.4691 H   0  0  0  0  0  0  0  0  0  0  0  0
   11.6985   39.5089   30.3498 H   0  0  0  0  0  0  0  0  0  0  0  0
   10.1109   38.2736   32.6629 H   0  0  0  0  0  0  0  0  0  0  0  0
   13.6783   37.4561   31.2271 H   0  0  0  0  0  0  0  0  0  0  0  0
    9.0020   37.3859   30.9348 H   0  0  0  0  0  0  0  0  0  0  0  0
   11.2808   36.3052   32.4921 H   0  0  0  0  0  0  0  0  0  0  0  0
   11.8818   36.9599   29.7584 H   0  0  0  0  0  0  0  0  0  0  0  0
   12.3303   38.3538   34.7445 H   0  0  0  0  0  0  0  0  0  0  0  0
   16.7563   34.1783   32.4624 H   0  0  0  0  0  0  0  0  0  0  0  0
   15.3532   35.7359   37.5142 H   0  0  0  0  0  0  0  0  0  0  0  0
   16.6348   34.5301   37.1418 H   0  0  0  0  0  0  0  0  0  0  0  0
  1  2  2  0
  1  3  1  0
  3  4  1  0
  4  5  1  0
  6  1  1  0
  7  6  1  0
  6  8  1  0
  8  9  1  0
  9 10  2  0
 11  9  1  0
 10 12  1  0
 13 11  2  0
 12 14  2  0
 14 13  1  0
 14 15  1  0
 15 16  1  0
 16 17  1  0
 16 18  1  0
 18 19  2  0
 20 18  1  0
 19 21  1  0
 22 20  2  0
 20 23  1  0
 21 24  1  0
 21 25  2  0
 25 22  1  0
 23 26  1  0
 23 27  2  0
 24 28  1  0
 25 29  1  0
 28 29  1  0
  4 30  2  0
  4 31  1  0
 32 31  1  0
 32 33  1  0
 33 34  1  0
 33 35  1  0
 34 36  1  0
 35 37  1  0
 35 38  1  0
 38 36  1  0
 36 39  1  0
 38 40  1  0
 41 39  1  0
 42 39  1  0
 43 41  2  0
 41 44  1  0
 45 42  2  0
 46 43  1  0
 44 47  2  0
 44 45  1  0
 48 46  2  0
 48 47  1  0
 47 49  1  0
  6 50  1  1
  7 51  1  0
  7 52  1  0
  8 53  1  0
  8 54  1  0
 10 55  1  0
 11 56  1  0
 12 57  1  0
 13 58  1  0
 16 59  1  1
 17 60  1  0
 17 61  1  0
 17 62  1  0
 19 63  1  0
 22 64  1  0
 28 65  1  0
 28 66  1  0
 32 67  1  0
 32 68  1  0
 33 69  1  0
 35 70  1  0
 36 71  1  0
 37 72  1  0
 38 73  1  0
 40 74  1  0
 42 75  1  0
 46 76  1  0
 49 77  1  0
 49 78  1  0
M  CHG  3   5  -1  23   1  26  -1
M  END
>  <EmbedRMS>  (309) 
0.0824542482548

$$$$

     RDKit          3D

 78 83  0  0  0  0  0  0  0  0999 V2000
   10.2803   43.7666   33.8250 C   0  0  0  0  0  0  0  0  0  0  0  0
   11.4110   43.5922   34.3666 O   0  0  0  0  0  0  0  0  0  0  0  0
    9.3621   42.7248   33.7342 O   0  0  0  0  0  0  0  0  0  0  0  0
    9.8904   41.2265   34.2936 P   0  0  0  0  0  0  0  0  0  0  0  0
   10.3731   41.4565   35.8831 O   0  0  0  0  0  0  0  0  0  0  0  0
    9.9454   45.0739   33.2114 C   0  0  1  0  0  0  0  0  0  0  0  0
   11.0260   46.0296   33.4709 N   0  0  0  0  0  0  0  0  0  0  0  0
    9.7533   44.8546   31.6952 C   0  0  0  0  0  0  0  0  0  0  0  0
    8.7952   45.8419   31.0854 C   0  0  0  0  0  0  0  0  0  0  0  0
    7.4077   45.5991   31.0994 C   0  0  0  0  0  0  0  0  0  0  0  0
    9.2832   46.9877   30.4367 C   0  0  0  0  0  0  0  0  0  0  0  0
    6.5273   46.4981   30.4816 C   0  0  0  0  0  0  0  0  0  0  0  0
    8.4011   47.8872   29.8263 C   0  0  0  0  0  0  0  0  0  0  0  0
    7.0187   47.6538   29.8592 C   0  0  0  0  0  0  0  0  0  0  0  0
    6.1242   48.5473   29.2613 O   0  0  0  0  0  0  0  0  0  0  0  0
    5.7132   49.7986   29.8299 C   0  0  2  0  0  0  0  0  0  0  0  0
    6.8695   50.8011   29.9217 C   0  0  0  0  0  0  0  0  0  0  0  0
    5.0098   49.6033   31.1703 C   0  0  0  0  0  0  0  0  0  0  0  0
    5.7563   49.1467   32.2877 C   0  0  0  0  0  0  0  0  0  0  0  0
    3.5961   49.8029   31.3182 C   0  0  0  0  0  0  0  0  0  0  0  0
    5.0853   48.8686   33.4705 C   0  0  0  0  0  0  0  0  0  0  0  0
    2.9654   49.4906   32.5437 C   0  0  0  0  0  0  0  0  0  0  0  0
    2.7975   50.3404   30.2553 N   0  0  0  0  0  0  0  0  0  0  0  0
    5.6050   48.4026   34.6628 O   0  0  0  0  0  0  0  0  0  0  0  0
    3.7483   49.0277   33.5917 C   0  0  0  0  0  0  0  0  0  0  0  0
    3.1030   51.5759   29.7327 O   0  0  0  0  0  0  0  0  0  0  0  0
    1.6860   49.8342   29.9973 O   0  0  0  0  0  0  0  0  0  0  0  0
    4.5218   48.2613   35.5919 C   0  0  0  0  0  0  0  0  0  0  0  0
    3.3543   48.6720   34.8673 O   0  0  0  0  0  0  0  0  0  0  0  0
    8.8129   40.1842   34.2124 O   0  0  0  0  0  0  0  0  0  0  0  0
   11.2419   40.7945   33.3695 O   0  0  0  0  0  0  0  0  0  0  0  0
   10.9185   40.6911   31.9969 C   0  0  0  0  0  0  0  0  0  0  0  0
   11.5172   39.3814   31.4407 C   0  0  0  0  0  0  0  0  0  0  0  0
   12.7492   39.0856   32.0729 O   0  0  0  0  0  0  0  0  0  0  0  0
   10.6023   38.1908   31.6665 C   0  0  0  0  0  0  0  0  0  0  0  0
   12.9319   37.6781   32.0281 C   0  0  0  0  0  0  0  0  0  0  0  0
    9.6392   38.0797   30.6452 O   0  0  0  0  0  0  0  0  0  0  0  0
   11.5715   37.0165   31.7056 C   0  0  0  0  0  0  0  0  0  0  0  0
   13.4846   37.2121   33.3235 N   0  0  0  0  0  0  0  0  0  0  0  0
   11.6187   36.3384   30.4695 O   0  0  0  0  0  0  0  0  0  0  0  0
   14.4801   36.3321   33.5724 C   0  0  0  0  0  0  0  0  0  0  0  0
   13.1137   37.6275   34.5688 C   0  0  0  0  0  0  0  0  0  0  0  0
   15.2073   35.6153   32.6738 N   0  0  0  0  0  0  0  0  0  0  0  0
   14.6759   36.2308   34.9179 C   0  0  0  0  0  0  0  0  0  0  0  0
   13.8216   37.0452   35.5781 N   0  0  0  0  0  0  0  0  0  0  0  0
   16.1640   34.7602   33.1546 C   0  0  0  0  0  0  0  0  0  0  0  0
   15.6526   35.3508   35.4129 C   0  0  0  0  0  0  0  0  0  0  0  0
   16.3794   34.6317   34.5041 N   0  0  0  0  0  0  0  0  0  0  0  0
   15.8999   35.1935   36.8088 N   0  0  0  0  0  0  0  0  0  0  0  0
    8.9989   45.4383   33.6725 H   0  0  0  0  0  0  0  0  0  0  0  0
   11.0494   46.2283   34.4983 H   0  0  0  0  0  0  0  0  0  0  0  0
   10.7754   46.9372   33.0159 H   0  0  0  0  0  0  0  0  0  0  0  0
    9.3635   43.8360   31.4714 H   0  0  0  0  0  0  0  0  0  0  0  0
   10.7404   44.9080   31.1839 H   0  0  0  0  0  0  0  0  0  0  0  0
    7.0123   44.7145   31.5831 H   0  0  0  0  0  0  0  0  0  0  0  0
   10.3476   47.1833   30.3965 H   0  0  0  0  0  0  0  0  0  0  0  0
    5.4621   46.3059   30.5014 H   0  0  0  0  0  0  0  0  0  0  0  0
    8.7960   48.7562   29.3172 H   0  0  0  0  0  0  0  0  0  0  0  0
    5.0095   50.2294   29.0942 H   0  0  0  0  0  0  0  0  0  0  0  0
    6.4833   51.7911   30.2454 H   0  0  0  0  0  0  0  0  0  0  0  0
    7.6431   50.4740   30.6451 H   0  0  0  0  0  0  0  0  0  0  0  0
    7.3432   50.9191   28.9242 H   0  0  0  0  0  0  0  0  0  0  0  0
    6.8247   48.9883   32.2380 H   0  0  0  0  0  0  0  0  0  0  0  0
    1.9001   49.6277   32.6791 H   0  0  0  0  0  0  0  0  0  0  0  0
    4.4233   47.2018   35.9086 H   0  0  0  0  0  0  0  0  0  0  0  0
    4.6802   48.9221   36.4698 H   0  0  0  0  0  0  0  0  0  0  0  0
   11.3967   41.5460   31.4725 H   0  0  0  0  0  0  0  0  0  0  0  0
    9.8298   40.7409   31.7611 H   0  0  0  0  0  0  0  0  0  0  0  0
   11.6975   39.5066   30.3481 H   0  0  0  0  0  0  0  0  0  0  0  0
   10.1076   38.2648   32.6646 H   0  0  0  0  0  0  0  0  0  0  0  0
   13.6621   37.4468   31.2209 H   0  0  0  0  0  0  0  0  0  0  0  0
    8.8974   38.6942   30.8832 H   0  0  0  0  0  0  0  0  0  0  0  0
   11.2806   36.3073   32.5170 H   0  0  0  0  0  0  0  0  0  0  0  0
   10.8493   35.7110   30.4586 H   0  0  0  0  0  0  0  0  0  0  0  0
   12.3290   38.3524   34.7444 H   0  0  0  0  0  0  0  0  0  0  0  0
   16.7559   34.1780   32.4619 H   0  0  0  0  0  0  0  0  0  0  0  0
   16.6344   34.5301   37.1414 H   0  0  0  0  0  0  0  0  0  0  0  0
   15.3532   35.7362   37.5137 H   0  0  0  0  0  0  0  0  0  0  0  0
  1  2  2  0
  1  3  1  0
  3  4  1  0
  4  5  1  0
  6  1  1  0
  7  6  1  0
  6  8  1  0
  8  9  1  0
  9 10  2  0
 11  9  1  0
 10 12  1  0
 13 11  2  0
 12 14  2  0
 14 13  1  0
 14 15  1  0
 15 16  1  0
 16 17  1  0
 16 18  1  0
 18 19  2  0
 20 18  1  0
 19 21  1  0
 22 20  2  0
 20 23  1  0
 21 24  1  0
 21 25  2  0
 25 22  1  0
 23 26  1  0
 23 27  2  0
 24 28  1  0
 25 29  1  0
 28 29  1  0
  4 30  2  0
  4 31  1  0
 32 31  1  0
 32 33  1  0
 33 34  1  0
 33 35  1  0
 34 36  1  0
 35 37  1  0
 35 38  1  0
 38 36  1  0
 36 39  1  0
 38 40  1  0
 41 39  1  0
 42 39  1  0
 43 41  2  0
 41 44  1  0
 45 42  2  0
 46 43  1  0
 44 47  2  0
 44 45  1  0
 48 46  2  0
 48 47  1  0
 47 49  1  0
  6 50  1  1
  7 51  1  0
  7 52  1  0
  8 53  1  0
  8 54  1  0
 10 55  1  0
 11 56  1  0
 12 57  1  0
 13 58  1  0
 16 59  1  6
 17 60  1  0
 17 61  1  0
 17 62  1  0
 19 63  1  0
 22 64  1  0
 28 65  1  0
 28 66  1  0
 32 67  1  0
 32 68  1  0
 33 69  1  0
 35 70  1  0
 36 71  1  0
 37 72  1  0
 38 73  1  0
 40 74  1  0
 42 75  1  0
 46 76  1  0
 49 77  1  0
 49 78  1  0
M  CHG  3   5  -1  23   1  26  -1
M  END
>  <EmbedRMS>  (310) 
0.0828750598413

$$$$

     RDKit          3D

 78 83  0  0  0  0  0  0  0  0999 V2000
   10.2838   43.7627   33.8276 C   0  0  0  0  0  0  0  0  0  0  0  0
   11.4102   43.5864   34.3766 O   0  0  0  0  0  0  0  0  0  0  0  0
    9.3631   42.7236   33.7354 O   0  0  0  0  0  0  0  0  0  0  0  0
    9.8895   41.2249   34.2944 P   0  0  0  0  0  0  0  0  0  0  0  0
   10.3727   41.4547   35.8838 O   0  0  0  0  0  0  0  0  0  0  0  0
    9.9547   45.0699   33.2061 C   0  0  1  0  0  0  0  0  0  0  0  0
   11.0196   46.0482   33.4566 N   0  0  0  0  0  0  0  0  0  0  0  0
    9.7504   44.8504   31.6920 C   0  0  0  0  0  0  0  0  0  0  0  0
    8.7945   45.8406   31.0856 C   0  0  0  0  0  0  0  0  0  0  0  0
    7.4079   45.6010   31.1001 C   0  0  0  0  0  0  0  0  0  0  0  0
    9.2829   46.9890   30.4459 C   0  0  0  0  0  0  0  0  0  0  0  0
    6.5287   46.5032   30.4861 C   0  0  0  0  0  0  0  0  0  0  0  0
    8.4034   47.8904   29.8348 C   0  0  0  0  0  0  0  0  0  0  0  0
    7.0140   47.6512   29.8441 C   0  0  0  0  0  0  0  0  0  0  0  0
    6.0765   48.5213   29.2530 O   0  0  0  0  0  0  0  0  0  0  0  0
    6.3325   49.5844   28.3197 C   0  0  2  0  0  0  0  0  0  0  0  0
    7.1522   49.0646   27.1206 C   0  0  0  0  0  0  0  0  0  0  0  0
    6.9308   50.8335   28.9732 C   0  0  0  0  0  0  0  0  0  0  0  0
    7.1776   50.8592   30.3724 C   0  0  0  0  0  0  0  0  0  0  0  0
    7.2420   52.0069   28.2013 C   0  0  0  0  0  0  0  0  0  0  0  0
    7.7952   51.9739   30.9230 C   0  0  0  0  0  0  0  0  0  0  0  0
    7.8875   53.1037   28.8145 C   0  0  0  0  0  0  0  0  0  0  0  0
    6.8810   52.1211   26.8173 N   0  0  0  0  0  0  0  0  0  0  0  0
    8.1481   52.1959   32.2404 O   0  0  0  0  0  0  0  0  0  0  0  0
    8.1449   53.0438   30.1757 C   0  0  0  0  0  0  0  0  0  0  0  0
    7.7308   52.7548   25.9405 O   0  0  0  0  0  0  0  0  0  0  0  0
    5.7110   51.8815   26.4550 O   0  0  0  0  0  0  0  0  0  0  0  0
    8.7622   53.4892   32.3219 C   0  0  0  0  0  0  0  0  0  0  0  0
    8.7387   53.9966   30.9809 O   0  0  0  0  0  0  0  0  0  0  0  0
    8.8114   40.1834   34.2130 O   0  0  0  0  0  0  0  0  0  0  0  0
   11.2402   40.7931   33.3695 O   0  0  0  0  0  0  0  0  0  0  0  0
   10.9151   40.6903   31.9975 C   0  0  0  0  0  0  0  0  0  0  0  0
   11.5252   39.3885   31.4375 C   0  0  0  0  0  0  0  0  0  0  0  0
   12.7500   39.0873   32.0798 O   0  0  0  0  0  0  0  0  0  0  0  0
   10.6092   38.1925   31.6469 C   0  0  0  0  0  0  0  0  0  0  0  0
   12.9332   37.6792   32.0294 C   0  0  0  0  0  0  0  0  0  0  0  0
    9.6122   38.0894   30.6542 O   0  0  0  0  0  0  0  0  0  0  0  0
   11.5743   37.0144   31.7024 C   0  0  0  0  0  0  0  0  0  0  0  0
   13.4844   37.2108   33.3241 N   0  0  0  0  0  0  0  0  0  0  0  0
   11.6297   36.3238   30.4740 O   0  0  0  0  0  0  0  0  0  0  0  0
   14.4802   36.3313   33.5727 C   0  0  0  0  0  0  0  0  0  0  0  0
   13.1139   37.6267   34.5692 C   0  0  0  0  0  0  0  0  0  0  0  0
   15.2075   35.6149   32.6739 N   0  0  0  0  0  0  0  0  0  0  0  0
   14.6761   36.2303   34.9182 C   0  0  0  0  0  0  0  0  0  0  0  0
   13.8220   37.0447   35.5785 N   0  0  0  0  0  0  0  0  0  0  0  0
   16.1643   34.7600   33.1547 C   0  0  0  0  0  0  0  0  0  0  0  0
   15.6529   35.3505   35.4130 C   0  0  0  0  0  0  0  0  0  0  0  0
   16.3798   34.6315   34.5042 N   0  0  0  0  0  0  0  0  0  0  0  0
   15.9003   35.1932   36.8090 N   0  0  0  0  0  0  0  0  0  0  0  0
    9.0096   45.4349   33.6665 H   0  0  0  0  0  0  0  0  0  0  0  0
   11.9347   45.6934   33.0923 H   0  0  0  0  0  0  0  0  0  0  0  0
   11.1131   46.1994   34.4879 H   0  0  0  0  0  0  0  0  0  0  0  0
    9.3515   43.8337   31.4761 H   0  0  0  0  0  0  0  0  0  0  0  0
   10.7308   44.8920   31.1674 H   0  0  0  0  0  0  0  0  0  0  0  0
    7.0110   44.7166   31.5832 H   0  0  0  0  0  0  0  0  0  0  0  0
   10.3465   47.1928   30.4257 H   0  0  0  0  0  0  0  0  0  0  0  0
    5.4642   46.3069   30.5065 H   0  0  0  0  0  0  0  0  0  0  0  0
    8.8172   48.7806   29.3883 H   0  0  0  0  0  0  0  0  0  0  0  0
    5.3360   49.8774   27.9285 H   0  0  0  0  0  0  0  0  0  0  0  0
    6.8567   49.5810   26.1854 H   0  0  0  0  0  0  0  0  0  0  0  0
    6.9616   47.9817   26.9639 H   0  0  0  0  0  0  0  0  0  0  0  0
    8.2405   49.2200   27.2651 H   0  0  0  0  0  0  0  0  0  0  0  0
    6.9068   50.0432   31.0258 H   0  0  0  0  0  0  0  0  0  0  0  0
    8.1443   53.9925   28.2527 H   0  0  0  0  0  0  0  0  0  0  0  0
    8.1755   54.1513   32.9925 H   0  0  0  0  0  0  0  0  0  0  0  0
    9.8096   53.3953   32.6778 H   0  0  0  0  0  0  0  0  0  0  0  0
   11.3804   41.5528   31.4739 H   0  0  0  0  0  0  0  0  0  0  0  0
    9.8243   40.7216   31.7641 H   0  0  0  0  0  0  0  0  0  0  0  0
   11.7265   39.5311   30.3512 H   0  0  0  0  0  0  0  0  0  0  0  0
   10.1110   38.2746   32.6387 H   0  0  0  0  0  0  0  0  0  0  0  0
   13.6652   37.4518   31.2226 H   0  0  0  0  0  0  0  0  0  0  0  0
   10.0511   38.1143   29.7644 H   0  0  0  0  0  0  0  0  0  0  0  0
   11.2762   36.3141   32.5189 H   0  0  0  0  0  0  0  0  0  0  0  0
   10.8593   35.6977   30.4640 H   0  0  0  0  0  0  0  0  0  0  0  0
   12.3295   38.3518   34.7449 H   0  0  0  0  0  0  0  0  0  0  0  0
   16.7563   34.1779   32.4620 H   0  0  0  0  0  0  0  0  0  0  0  0
   16.6348   34.5300   37.1416 H   0  0  0  0  0  0  0  0  0  0  0  0
   15.3534   35.7359   37.5138 H   0  0  0  0  0  0  0  0  0  0  0  0
  1  2  2  0
  1  3  1  0
  3  4  1  0
  4  5  1  0
  6  1  1  0
  7  6  1  0
  6  8  1  0
  8  9  1  0
  9 10  2  0
 11  9  1  0
 10 12  1  0
 13 11  2  0
 12 14  2  0
 14 13  1  0
 14 15  1  0
 15 16  1  0
 16 17  1  0
 16 18  1  0
 18 19  2  0
 20 18  1  0
 19 21  1  0
 22 20  2  0
 20 23  1  0
 21 24  1  0
 21 25  2  0
 25 22  1  0
 23 26  1  0
 23 27  2  0
 24 28  1  0
 25 29  1  0
 28 29  1  0
  4 30  2  0
  4 31  1  0
 32 31  1  0
 32 33  1  0
 33 34  1  0
 33 35  1  0
 34 36  1  0
 35 37  1  0
 35 38  1  0
 38 36  1  0
 36 39  1  0
 38 40  1  0
 41 39  1  0
 42 39  1  0
 43 41  2  0
 41 44  1  0
 45 42  2  0
 46 43  1  0
 44 47  2  0
 44 45  1  0
 48 46  2  0
 48 47  1  0
 47 49  1  0
  6 50  1  1
  7 51  1  0
  7 52  1  0
  8 53  1  0
  8 54  1  0
 10 55  1  0
 11 56  1  0
 12 57  1  0
 13 58  1  0
 16 59  1  6
 17 60  1  0
 17 61  1  0
 17 62  1  0
 19 63  1  0
 22 64  1  0
 28 65  1  0
 28 66  1  0
 32 67  1  0
 32 68  1  0
 33 69  1  0
 35 70  1  0
 36 71  1  0
 37 72  1  0
 38 73  1  0
 40 74  1  0
 42 75  1  0
 46 76  1  0
 49 77  1  0
 49 78  1  0
M  CHG  3   5  -1  23   1  26  -1
M  END
>  <EmbedRMS>  (311) 
0.0827398825027

$$$$

     RDKit          3D

 78 83  0  0  0  0  0  0  0  0999 V2000
   10.2866   43.7675   33.8274 C   0  0  0  0  0  0  0  0  0  0  0  0
   11.4111   43.5955   34.3812 O   0  0  0  0  0  0  0  0  0  0  0  0
    9.3676   42.7261   33.7333 O   0  0  0  0  0  0  0  0  0  0  0  0
    9.8905   41.2264   34.2933 P   0  0  0  0  0  0  0  0  0  0  0  0
   10.3707   41.4508   35.8849 O   0  0  0  0  0  0  0  0  0  0  0  0
    9.9599   45.0710   33.2042 C   0  0  1  0  0  0  0  0  0  0  0  0
   11.0334   46.0319   33.4769 N   0  0  0  0  0  0  0  0  0  0  0  0
    9.7523   44.8505   31.6874 C   0  0  0  0  0  0  0  0  0  0  0  0
    8.7934   45.8413   31.0865 C   0  0  0  0  0  0  0  0  0  0  0  0
    7.4104   45.5954   31.0943 C   0  0  0  0  0  0  0  0  0  0  0  0
    9.2778   46.9903   30.4471 C   0  0  0  0  0  0  0  0  0  0  0  0
    6.5286   46.4905   30.4766 C   0  0  0  0  0  0  0  0  0  0  0  0
    8.3955   47.8883   29.8352 C   0  0  0  0  0  0  0  0  0  0  0  0
    7.0135   47.6566   29.8479 C   0  0  0  0  0  0  0  0  0  0  0  0
    6.1732   48.5976   29.2160 O   0  0  0  0  0  0  0  0  0  0  0  0
    4.7352   48.5914   29.1923 C   0  0  2  0  0  0  0  0  0  0  0  0
    4.1994   48.7169   30.6334 C   0  0  0  0  0  0  0  0  0  0  0  0
    4.1776   47.4020   28.3990 C   0  0  0  0  0  0  0  0  0  0  0  0
    5.0369   46.7078   27.4999 C   0  0  0  0  0  0  0  0  0  0  0  0
    2.7997   46.9896   28.4834 C   0  0  0  0  0  0  0  0  0  0  0  0
    4.5423   45.6017   26.8188 C   0  0  0  0  0  0  0  0  0  0  0  0
    2.3593   45.8407   27.7885 C   0  0  0  0  0  0  0  0  0  0  0  0
    1.8326   47.7266   29.2426 N   0  0  0  0  0  0  0  0  0  0  0  0
    5.2049   44.7782   25.9249 O   0  0  0  0  0  0  0  0  0  0  0  0
    3.2648   45.1772   26.9677 C   0  0  0  0  0  0  0  0  0  0  0  0
    1.0507   47.0639   30.1692 O   0  0  0  0  0  0  0  0  0  0  0  0
    1.5078   48.8811   28.8827 O   0  0  0  0  0  0  0  0  0  0  0  0
    4.2832   43.7668   25.4908 C   0  0  0  0  0  0  0  0  0  0  0  0
    3.0564   44.0581   26.1815 O   0  0  0  0  0  0  0  0  0  0  0  0
    8.8097   40.1874   34.2118 O   0  0  0  0  0  0  0  0  0  0  0  0
   11.2407   40.7964   33.3671 O   0  0  0  0  0  0  0  0  0  0  0  0
   10.9154   40.6929   31.9948 C   0  0  0  0  0  0  0  0  0  0  0  0
   11.5252   39.3898   31.4367 C   0  0  0  0  0  0  0  0  0  0  0  0
   12.7487   39.0883   32.0815 O   0  0  0  0  0  0  0  0  0  0  0  0
   10.6085   38.1931   31.6456 C   0  0  0  0  0  0  0  0  0  0  0  0
   12.9322   37.6798   32.0304 C   0  0  0  0  0  0  0  0  0  0  0  0
    9.6121   38.0892   30.6522 O   0  0  0  0  0  0  0  0  0  0  0  0
   11.5726   37.0138   31.7019 C   0  0  0  0  0  0  0  0  0  0  0  0
   13.4847   37.2119   33.3250 N   0  0  0  0  0  0  0  0  0  0  0  0
   11.6225   36.3177   30.4749 O   0  0  0  0  0  0  0  0  0  0  0  0
   14.4792   36.3315   33.5730 C   0  0  0  0  0  0  0  0  0  0  0  0
   13.1130   37.6254   34.5701 C   0  0  0  0  0  0  0  0  0  0  0  0
   15.2063   35.6160   32.6733 N   0  0  0  0  0  0  0  0  0  0  0  0
   14.6743   36.2288   34.9186 C   0  0  0  0  0  0  0  0  0  0  0  0
   13.8204   37.0430   35.5796 N   0  0  0  0  0  0  0  0  0  0  0  0
   16.1656   34.7637   33.1538 C   0  0  0  0  0  0  0  0  0  0  0  0
   15.6516   35.3501   35.4128 C   0  0  0  0  0  0  0  0  0  0  0  0
   16.3812   34.6353   34.5031 N   0  0  0  0  0  0  0  0  0  0  0  0
   15.9018   35.1957   36.8085 N   0  0  0  0  0  0  0  0  0  0  0  0
    9.0200   45.4346   33.6762 H   0  0  0  0  0  0  0  0  0  0  0  0
   10.7331   46.9719   33.1314 H   0  0  0  0  0  0  0  0  0  0  0  0
   11.8960   45.7665   32.9466 H   0  0  0  0  0  0  0  0  0  0  0  0
    9.3529   43.8326   31.4789 H   0  0  0  0  0  0  0  0  0  0  0  0
   10.7282   44.8851   31.1517 H   0  0  0  0  0  0  0  0  0  0  0  0
    7.0202   44.7011   31.5626 H   0  0  0  0  0  0  0  0  0  0  0  0
   10.3398   47.1937   30.4236 H   0  0  0  0  0  0  0  0  0  0  0  0
    5.4832   46.2377   30.4703 H   0  0  0  0  0  0  0  0  0  0  0  0
    8.7902   48.7646   29.3400 H   0  0  0  0  0  0  0  0  0  0  0  0
    4.4231   49.5061   28.6461 H   0  0  0  0  0  0  0  0  0  0  0  0
    4.9673   49.1743   31.2968 H   0  0  0  0  0  0  0  0  0  0  0  0
    3.9122   47.7276   31.0528 H   0  0  0  0  0  0  0  0  0  0  0  0
    3.3122   49.3830   30.6649 H   0  0  0  0  0  0  0  0  0  0  0  0
    6.0624   47.0119   27.3288 H   0  0  0  0  0  0  0  0  0  0  0  0
    1.3291   45.5006   27.8558 H   0  0  0  0  0  0  0  0  0  0  0  0
    4.6535   42.7580   25.7750 H   0  0  0  0  0  0  0  0  0  0  0  0
    4.1314   43.8370   24.3926 H   0  0  0  0  0  0  0  0  0  0  0  0
   11.3865   41.5529   31.4711 H   0  0  0  0  0  0  0  0  0  0  0  0
    9.8244   40.7276   31.7567 H   0  0  0  0  0  0  0  0  0  0  0  0
   11.7278   39.5342   30.3502 H   0  0  0  0  0  0  0  0  0  0  0  0
   10.1095   38.2755   32.6372 H   0  0  0  0  0  0  0  0  0  0  0  0
   13.6643   37.4515   31.2254 H   0  0  0  0  0  0  0  0  0  0  0  0
   10.0503   38.1126   29.7617 H   0  0  0  0  0  0  0  0  0  0  0  0
   11.2776   36.3141   32.5192 H   0  0  0  0  0  0  0  0  0  0  0  0
   10.8476   35.6946   30.4658 H   0  0  0  0  0  0  0  0  0  0  0  0
   12.3243   38.3456   34.7432 H   0  0  0  0  0  0  0  0  0  0  0  0
   16.7631   34.1858   32.4630 H   0  0  0  0  0  0  0  0  0  0  0  0
   16.6333   34.5294   37.1417 H   0  0  0  0  0  0  0  0  0  0  0  0
   15.3525   35.7364   37.5132 H   0  0  0  0  0  0  0  0  0  0  0  0
  1  2  2  0
  1  3  1  0
  3  4  1  0
  4  5  1  0
  6  1  1  0
  7  6  1  0
  6  8  1  0
  8  9  1  0
  9 10  2  0
 11  9  1  0
 10 12  1  0
 13 11  2  0
 12 14  2  0
 14 13  1  0
 14 15  1  0
 15 16  1  0
 16 17  1  0
 16 18  1  0
 18 19  2  0
 20 18  1  0
 19 21  1  0
 22 20  2  0
 20 23  1  0
 21 24  1  0
 21 25  2  0
 25 22  1  0
 23 26  1  0
 23 27  2  0
 24 28  1  0
 25 29  1  0
 28 29  1  0
  4 30  2  0
  4 31  1  0
 32 31  1  0
 32 33  1  0
 33 34  1  0
 33 35  1  0
 34 36  1  0
 35 37  1  0
 35 38  1  0
 38 36  1  0
 36 39  1  0
 38 40  1  0
 41 39  1  0
 42 39  1  0
 43 41  2  0
 41 44  1  0
 45 42  2  0
 46 43  1  0
 44 47  2  0
 44 45  1  0
 48 46  2  0
 48 47  1  0
 47 49  1  0
  6 50  1  1
  7 51  1  0
  7 52  1  0
  8 53  1  0
  8 54  1  0
 10 55  1  0
 11 56  1  0
 12 57  1  0
 13 58  1  0
 16 59  1  6
 17 60  1  0
 17 61  1  0
 17 62  1  0
 19 63  1  0
 22 64  1  0
 28 65  1  0
 28 66  1  0
 32 67  1  0
 32 68  1  0
 33 69  1  0
 35 70  1  0
 36 71  1  0
 37 72  1  0
 38 73  1  0
 40 74  1  0
 42 75  1  0
 46 76  1  0
 49 77  1  0
 49 78  1  0
M  CHG  3   5  -1  23   1  26  -1
M  END
>  <EmbedRMS>  (312) 
0.0818660966021

$$$$

     RDKit          3D

 78 83  0  0  0  0  0  0  0  0999 V2000
   10.2831   43.7665   33.8257 C   0  0  0  0  0  0  0  0  0  0  0  0
   11.4100   43.5932   34.3750 O   0  0  0  0  0  0  0  0  0  0  0  0
    9.3634   42.7258   33.7352 O   0  0  0  0  0  0  0  0  0  0  0  0
    9.8899   41.2271   34.2947 P   0  0  0  0  0  0  0  0  0  0  0  0
   10.3732   41.4564   35.8841 O   0  0  0  0  0  0  0  0  0  0  0  0
    9.9542   45.0699   33.2037 C   0  0  1  0  0  0  0  0  0  0  0  0
   11.0268   46.0326   33.4759 N   0  0  0  0  0  0  0  0  0  0  0  0
    9.7464   44.8488   31.6877 C   0  0  0  0  0  0  0  0  0  0  0  0
    8.7920   45.8415   31.0845 C   0  0  0  0  0  0  0  0  0  0  0  0
    7.4043   45.6002   31.0981 C   0  0  0  0  0  0  0  0  0  0  0  0
    9.2825   46.9883   30.4395 C   0  0  0  0  0  0  0  0  0  0  0  0
    6.5253   46.5006   30.4812 C   0  0  0  0  0  0  0  0  0  0  0  0
    8.4014   47.8885   29.8284 C   0  0  0  0  0  0  0  0  0  0  0  0
    7.0204   47.6544   29.8569 C   0  0  0  0  0  0  0  0  0  0  0  0
    6.1396   48.5567   29.2534 O   0  0  0  0  0  0  0  0  0  0  0  0
    5.5389   49.6568   29.9451 C   0  0  2  0  0  0  0  0  0  0  0  0
    6.5726   50.7495   30.2528 C   0  0  0  0  0  0  0  0  0  0  0  0
    4.7655   49.1853   31.1729 C   0  0  0  0  0  0  0  0  0  0  0  0
    5.4473   48.9765   32.4005 C   0  0  0  0  0  0  0  0  0  0  0  0
    3.3533   48.9364   31.1122 C   0  0  0  0  0  0  0  0  0  0  0  0
    4.7125   48.5901   33.5129 C   0  0  0  0  0  0  0  0  0  0  0  0
    2.6553   48.5649   32.2845 C   0  0  0  0  0  0  0  0  0  0  0  0
    2.6292   49.0129   29.8738 N   0  0  0  0  0  0  0  0  0  0  0  0
    5.1636   48.3401   34.7947 O   0  0  0  0  0  0  0  0  0  0  0  0
    3.3749   48.4007   33.4596 C   0  0  0  0  0  0  0  0  0  0  0  0
    3.1270   48.4031   28.7453 O   0  0  0  0  0  0  0  0  0  0  0  0
    1.4531   49.4315   29.8628 O   0  0  0  0  0  0  0  0  0  0  0  0
    4.0337   47.9712   35.5970 C   0  0  0  0  0  0  0  0  0  0  0  0
    2.9118   48.0226   34.7052 O   0  0  0  0  0  0  0  0  0  0  0  0
    8.8120   40.1851   34.2133 O   0  0  0  0  0  0  0  0  0  0  0  0
   11.2402   40.7948   33.3700 O   0  0  0  0  0  0  0  0  0  0  0  0
   10.9144   40.6914   31.9982 C   0  0  0  0  0  0  0  0  0  0  0  0
   11.5270   39.3912   31.4386 C   0  0  0  0  0  0  0  0  0  0  0  0
   12.7520   39.0911   32.0837 O   0  0  0  0  0  0  0  0  0  0  0  0
   10.6113   38.1932   31.6451 C   0  0  0  0  0  0  0  0  0  0  0  0
   12.9413   37.6838   32.0297 C   0  0  0  0  0  0  0  0  0  0  0  0
    9.6064   38.0878   30.6599 O   0  0  0  0  0  0  0  0  0  0  0  0
   11.5822   37.0198   31.6877 C   0  0  0  0  0  0  0  0  0  0  0  0
   13.4840   37.2104   33.3254 N   0  0  0  0  0  0  0  0  0  0  0  0
   11.6179   36.3072   30.4690 O   0  0  0  0  0  0  0  0  0  0  0  0
   14.4797   36.3309   33.5738 C   0  0  0  0  0  0  0  0  0  0  0  0
   13.1136   37.6269   34.5702 C   0  0  0  0  0  0  0  0  0  0  0  0
   15.2074   35.6152   32.6747 N   0  0  0  0  0  0  0  0  0  0  0  0
   14.6756   36.2298   34.9190 C   0  0  0  0  0  0  0  0  0  0  0  0
   13.8217   37.0445   35.5793 N   0  0  0  0  0  0  0  0  0  0  0  0
   16.1643   34.7603   33.1551 C   0  0  0  0  0  0  0  0  0  0  0  0
   15.6528   35.3503   35.4136 C   0  0  0  0  0  0  0  0  0  0  0  0
   16.3798   34.6316   34.5046 N   0  0  0  0  0  0  0  0  0  0  0  0
   15.9004   35.1930   36.8094 N   0  0  0  0  0  0  0  0  0  0  0  0
    9.0115   45.4321   33.6714 H   0  0  0  0  0  0  0  0  0  0  0  0
   10.7252   46.9692   33.1217 H   0  0  0  0  0  0  0  0  0  0  0  0
   11.8901   45.7665   32.9473 H   0  0  0  0  0  0  0  0  0  0  0  0
   10.7229   44.8826   31.1559 H   0  0  0  0  0  0  0  0  0  0  0  0
    9.3416   43.8336   31.4761 H   0  0  0  0  0  0  0  0  0  0  0  0
    7.0074   44.7150   31.5795 H   0  0  0  0  0  0  0  0  0  0  0  0
   10.3470   47.1848   30.4054 H   0  0  0  0  0  0  0  0  0  0  0  0
    5.4602   46.3071   30.4964 H   0  0  0  0  0  0  0  0  0  0  0  0
    8.7918   48.7683   29.3330 H   0  0  0  0  0  0  0  0  0  0  0  0
    4.8301   50.1386   29.2405 H   0  0  0  0  0  0  0  0  0  0  0  0
    6.0918   51.5858   30.8039 H   0  0  0  0  0  0  0  0  0  0  0  0
    7.4193   50.3605   30.8529 H   0  0  0  0  0  0  0  0  0  0  0  0
    6.9856   51.1479   29.3018 H   0  0  0  0  0  0  0  0  0  0  0  0
    6.5162   49.1038   32.4944 H   0  0  0  0  0  0  0  0  0  0  0  0
    1.5899   48.3744   32.2702 H   0  0  0  0  0  0  0  0  0  0  0  0
    3.8978   48.6971   36.4259 H   0  0  0  0  0  0  0  0  0  0  0  0
    4.1627   46.9416   35.9916 H   0  0  0  0  0  0  0  0  0  0  0  0
   11.3776   41.5549   31.4744 H   0  0  0  0  0  0  0  0  0  0  0  0
    9.8234   40.7201   31.7654 H   0  0  0  0  0  0  0  0  0  0  0  0
   11.7312   39.5363   30.3532 H   0  0  0  0  0  0  0  0  0  0  0  0
   10.1202   38.2696   32.6410 H   0  0  0  0  0  0  0  0  0  0  0  0
   13.6850   37.4639   31.2321 H   0  0  0  0  0  0  0  0  0  0  0  0
   10.0251   38.1793   29.7654 H   0  0  0  0  0  0  0  0  0  0  0  0
   11.2757   36.3135   32.4907 H   0  0  0  0  0  0  0  0  0  0  0  0
   11.9838   36.9111   29.7708 H   0  0  0  0  0  0  0  0  0  0  0  0
   12.3307   38.3536   34.7457 H   0  0  0  0  0  0  0  0  0  0  0  0
   16.7566   34.1787   32.4623 H   0  0  0  0  0  0  0  0  0  0  0  0
   16.6353   34.5301   37.1419 H   0  0  0  0  0  0  0  0  0  0  0  0
   15.3535   35.7355   37.5144 H   0  0  0  0  0  0  0  0  0  0  0  0
  1  2  2  0
  1  3  1  0
  3  4  1  0
  4  5  1  0
  6  1  1  0
  7  6  1  0
  6  8  1  0
  8  9  1  0
  9 10  2  0
 11  9  1  0
 10 12  1  0
 13 11  2  0
 12 14  2  0
 14 13  1  0
 14 15  1  0
 15 16  1  0
 16 17  1  0
 16 18  1  0
 18 19  2  0
 20 18  1  0
 19 21  1  0
 22 20  2  0
 20 23  1  0
 21 24  1  0
 21 25  2  0
 25 22  1  0
 23 26  1  0
 23 27  2  0
 24 28  1  0
 25 29  1  0
 28 29  1  0
  4 30  2  0
  4 31  1  0
 32 31  1  0
 32 33  1  0
 33 34  1  0
 33 35  1  0
 34 36  1  0
 35 37  1  0
 35 38  1  0
 38 36  1  0
 36 39  1  0
 38 40  1  0
 41 39  1  0
 42 39  1  0
 43 41  2  0
 41 44  1  0
 45 42  2  0
 46 43  1  0
 44 47  2  0
 44 45  1  0
 48 46  2  0
 48 47  1  0
 47 49  1  0
  6 50  1  1
  7 51  1  0
  7 52  1  0
  8 53  1  0
  8 54  1  0
 10 55  1  0
 11 56  1  0
 12 57  1  0
 13 58  1  0
 16 59  1  6
 17 60  1  0
 17 61  1  0
 17 62  1  0
 19 63  1  0
 22 64  1  0
 28 65  1  0
 28 66  1  0
 32 67  1  0
 32 68  1  0
 33 69  1  0
 35 70  1  0
 36 71  1  0
 37 72  1  0
 38 73  1  0
 40 74  1  0
 42 75  1  0
 46 76  1  0
 49 77  1  0
 49 78  1  0
M  CHG  3   5  -1  23   1  26  -1
M  END
>  <EmbedRMS>  (313) 
0.0809298143245

$$$$

     RDKit          3D

 78 83  0  0  0  0  0  0  0  0999 V2000
   10.2838   43.7626   33.8278 C   0  0  0  0  0  0  0  0  0  0  0  0
   11.4103   43.5863   34.3767 O   0  0  0  0  0  0  0  0  0  0  0  0
    9.3630   42.7236   33.7355 O   0  0  0  0  0  0  0  0  0  0  0  0
    9.8894   41.2249   34.2944 P   0  0  0  0  0  0  0  0  0  0  0  0
   10.3728   41.4545   35.8838 O   0  0  0  0  0  0  0  0  0  0  0  0
    9.9548   45.0699   33.2065 C   0  0  1  0  0  0  0  0  0  0  0  0
   11.0198   46.0481   33.4568 N   0  0  0  0  0  0  0  0  0  0  0  0
    9.7502   44.8506   31.6925 C   0  0  0  0  0  0  0  0  0  0  0  0
    8.7942   45.8413   31.0872 C   0  0  0  0  0  0  0  0  0  0  0  0
    7.4082   45.6007   31.0996 C   0  0  0  0  0  0  0  0  0  0  0  0
    9.2823   46.9880   30.4449 C   0  0  0  0  0  0  0  0  0  0  0  0
    6.5299   46.5021   30.4836 C   0  0  0  0  0  0  0  0  0  0  0  0
    8.4028   47.8889   29.8325 C   0  0  0  0  0  0  0  0  0  0  0  0
    7.0135   47.6547   29.8474 C   0  0  0  0  0  0  0  0  0  0  0  0
    6.0686   48.5177   29.2621 O   0  0  0  0  0  0  0  0  0  0  0  0
    6.2927   49.7649   28.5926 C   0  0  2  0  0  0  0  0  0  0  0  0
    6.9324   49.5295   27.2155 C   0  0  0  0  0  0  0  0  0  0  0  0
    6.9788   50.7934   29.4925 C   0  0  0  0  0  0  0  0  0  0  0  0
    8.2662   51.3054   29.1718 C   0  0  0  0  0  0  0  0  0  0  0  0
    6.2910   51.3291   30.6341 C   0  0  0  0  0  0  0  0  0  0  0  0
    8.8229   52.2767   29.9930 C   0  0  0  0  0  0  0  0  0  0  0  0
    6.9040   52.3276   31.4238 C   0  0  0  0  0  0  0  0  0  0  0  0
    4.9581   50.9166   30.9709 N   0  0  0  0  0  0  0  0  0  0  0  0
   10.0530   52.8954   29.8775 O   0  0  0  0  0  0  0  0  0  0  0  0
    8.1717   52.7651   31.0716 C   0  0  0  0  0  0  0  0  0  0  0  0
    4.6919   49.5975   31.2504 O   0  0  0  0  0  0  0  0  0  0  0  0
    4.0999   51.7763   31.2582 O   0  0  0  0  0  0  0  0  0  0  0  0
   10.1806   53.8314   30.9565 C   0  0  0  0  0  0  0  0  0  0  0  0
    8.9563   53.7168   31.6943 O   0  0  0  0  0  0  0  0  0  0  0  0
    8.8113   40.1833   34.2130 O   0  0  0  0  0  0  0  0  0  0  0  0
   11.2399   40.7932   33.3693 O   0  0  0  0  0  0  0  0  0  0  0  0
   10.9143   40.6896   31.9973 C   0  0  0  0  0  0  0  0  0  0  0  0
   11.5261   39.3884   31.4375 C   0  0  0  0  0  0  0  0  0  0  0  0
   12.7504   39.0887   32.0815 O   0  0  0  0  0  0  0  0  0  0  0  0
   10.6115   38.1909   31.6460 C   0  0  0  0  0  0  0  0  0  0  0  0
   12.9357   37.6812   32.0303 C   0  0  0  0  0  0  0  0  0  0  0  0
    9.6145   38.0858   30.6533 O   0  0  0  0  0  0  0  0  0  0  0  0
   11.5769   37.0148   31.7012 C   0  0  0  0  0  0  0  0  0  0  0  0
   13.4849   37.2112   33.3247 N   0  0  0  0  0  0  0  0  0  0  0  0
   11.6193   36.3260   30.4724 O   0  0  0  0  0  0  0  0  0  0  0  0
   14.4802   36.3313   33.5730 C   0  0  0  0  0  0  0  0  0  0  0  0
   13.1141   37.6268   34.5697 C   0  0  0  0  0  0  0  0  0  0  0  0
   15.2075   35.6151   32.6741 N   0  0  0  0  0  0  0  0  0  0  0  0
   14.6761   36.2301   34.9184 C   0  0  0  0  0  0  0  0  0  0  0  0
   13.8220   37.0445   35.5789 N   0  0  0  0  0  0  0  0  0  0  0  0
   16.1642   34.7600   33.1547 C   0  0  0  0  0  0  0  0  0  0  0  0
   15.6530   35.3503   35.4132 C   0  0  0  0  0  0  0  0  0  0  0  0
   16.3798   34.6314   34.5042 N   0  0  0  0  0  0  0  0  0  0  0  0
   15.9004   35.1931   36.8090 N   0  0  0  0  0  0  0  0  0  0  0  0
    9.0099   45.4349   33.6671 H   0  0  0  0  0  0  0  0  0  0  0  0
   11.9348   45.6932   33.0924 H   0  0  0  0  0  0  0  0  0  0  0  0
   11.1134   46.1994   34.4881 H   0  0  0  0  0  0  0  0  0  0  0  0
   10.7305   44.8921   31.1677 H   0  0  0  0  0  0  0  0  0  0  0  0
    9.3511   43.8340   31.4765 H   0  0  0  0  0  0  0  0  0  0  0  0
    7.0110   44.7158   31.5816 H   0  0  0  0  0  0  0  0  0  0  0  0
   10.3467   47.1863   30.4152 H   0  0  0  0  0  0  0  0  0  0  0  0
    5.4655   46.3049   30.5037 H   0  0  0  0  0  0  0  0  0  0  0  0
    8.8256   48.7514   29.3519 H   0  0  0  0  0  0  0  0  0  0  0  0
    5.2888   50.1846   28.3646 H   0  0  0  0  0  0  0  0  0  0  0  0
    7.9250   49.0447   27.2927 H   0  0  0  0  0  0  0  0  0  0  0  0
    7.0350   50.4920   26.6703 H   0  0  0  0  0  0  0  0  0  0  0  0
    6.2775   48.8636   26.6144 H   0  0  0  0  0  0  0  0  0  0  0  0
    8.8309   50.9661   28.3155 H   0  0  0  0  0  0  0  0  0  0  0  0
    6.4036   52.7471   32.2873 H   0  0  0  0  0  0  0  0  0  0  0  0
   10.2938   54.8620   30.5595 H   0  0  0  0  0  0  0  0  0  0  0  0
   11.0430   53.5598   31.6006 H   0  0  0  0  0  0  0  0  0  0  0  0
    9.8233   40.7191   31.7644 H   0  0  0  0  0  0  0  0  0  0  0  0
   11.3782   41.5525   31.4733 H   0  0  0  0  0  0  0  0  0  0  0  0
   11.7282   39.5312   30.3515 H   0  0  0  0  0  0  0  0  0  0  0  0
   10.1127   38.2733   32.6376 H   0  0  0  0  0  0  0  0  0  0  0  0
   13.6692   37.4565   31.2241 H   0  0  0  0  0  0  0  0  0  0  0  0
   10.0533   38.1117   29.7635 H   0  0  0  0  0  0  0  0  0  0  0  0
   11.2607   36.3147   32.5101 H   0  0  0  0  0  0  0  0  0  0  0  0
   12.1496   35.5022   30.6324 H   0  0  0  0  0  0  0  0  0  0  0  0
   12.3301   38.3524   34.7455 H   0  0  0  0  0  0  0  0  0  0  0  0
   16.7563   34.1781   32.4619 H   0  0  0  0  0  0  0  0  0  0  0  0
   15.3536   35.7357   37.5140 H   0  0  0  0  0  0  0  0  0  0  0  0
   16.6351   34.5299   37.1416 H   0  0  0  0  0  0  0  0  0  0  0  0
  1  2  2  0
  1  3  1  0
  3  4  1  0
  4  5  1  0
  6  1  1  0
  7  6  1  0
  6  8  1  0
  8  9  1  0
  9 10  2  0
 11  9  1  0
 10 12  1  0
 13 11  2  0
 12 14  2  0
 14 13  1  0
 14 15  1  0
 15 16  1  0
 16 17  1  0
 16 18  1  0
 18 19  2  0
 20 18  1  0
 19 21  1  0
 22 20  2  0
 20 23  1  0
 21 24  1  0
 21 25  2  0
 25 22  1  0
 23 26  1  0
 23 27  2  0
 24 28  1  0
 25 29  1  0
 28 29  1  0
  4 30  2  0
  4 31  1  0
 32 31  1  0
 32 33  1  0
 33 34  1  0
 33 35  1  0
 34 36  1  0
 35 37  1  0
 35 38  1  0
 38 36  1  0
 36 39  1  0
 38 40  1  0
 41 39  1  0
 42 39  1  0
 43 41  2  0
 41 44  1  0
 45 42  2  0
 46 43  1  0
 44 47  2  0
 44 45  1  0
 48 46  2  0
 48 47  1  0
 47 49  1  0
  6 50  1  1
  7 51  1  0
  7 52  1  0
  8 53  1  0
  8 54  1  0
 10 55  1  0
 11 56  1  0
 12 57  1  0
 13 58  1  0
 16 59  1  6
 17 60  1  0
 17 61  1  0
 17 62  1  0
 19 63  1  0
 22 64  1  0
 28 65  1  0
 28 66  1  0
 32 67  1  0
 32 68  1  0
 33 69  1  0
 35 70  1  0
 36 71  1  0
 37 72  1  0
 38 73  1  0
 40 74  1  0
 42 75  1  0
 46 76  1  0
 49 77  1  0
 49 78  1  0
M  CHG  3   5  -1  23   1  26  -1
M  END
>  <EmbedRMS>  (314) 
0.0825123032738

$$$$

     RDKit          3D

 78 83  0  0  0  0  0  0  0  0999 V2000
   10.2836   43.7661   33.8257 C   0  0  0  0  0  0  0  0  0  0  0  0
   11.4103   43.5930   34.3754 O   0  0  0  0  0  0  0  0  0  0  0  0
    9.3641   42.7253   33.7348 O   0  0  0  0  0  0  0  0  0  0  0  0
    9.8908   41.2264   34.2939 P   0  0  0  0  0  0  0  0  0  0  0  0
   10.3732   41.4558   35.8836 O   0  0  0  0  0  0  0  0  0  0  0  0
    9.9547   45.0694   33.2036 C   0  0  1  0  0  0  0  0  0  0  0  0
   11.0273   46.0322   33.4757 N   0  0  0  0  0  0  0  0  0  0  0  0
    9.7467   44.8478   31.6878 C   0  0  0  0  0  0  0  0  0  0  0  0
    8.7923   45.8403   31.0847 C   0  0  0  0  0  0  0  0  0  0  0  0
    7.4064   45.6013   31.0987 C   0  0  0  0  0  0  0  0  0  0  0  0
    9.2813   46.9867   30.4424 C   0  0  0  0  0  0  0  0  0  0  0  0
    6.5286   46.5034   30.4835 C   0  0  0  0  0  0  0  0  0  0  0  0
    8.4023   47.8890   29.8317 C   0  0  0  0  0  0  0  0  0  0  0  0
    7.0129   47.6556   29.8471 C   0  0  0  0  0  0  0  0  0  0  0  0
    6.0683   48.5191   29.2621 O   0  0  0  0  0  0  0  0  0  0  0  0
    6.2934   49.7640   28.5886 C   0  0  2  0  0  0  0  0  0  0  0  0
    6.9321   49.5237   27.2119 C   0  0  0  0  0  0  0  0  0  0  0  0
    6.9810   50.7945   29.4850 C   0  0  0  0  0  0  0  0  0  0  0  0
    8.2681   51.3052   29.1615 C   0  0  0  0  0  0  0  0  0  0  0  0
    6.2946   51.3336   30.6258 C   0  0  0  0  0  0  0  0  0  0  0  0
    8.8260   52.2788   29.9792 C   0  0  0  0  0  0  0  0  0  0  0  0
    6.9085   52.3343   31.4119 C   0  0  0  0  0  0  0  0  0  0  0  0
    4.9621   50.9222   30.9653 N   0  0  0  0  0  0  0  0  0  0  0  0
   10.0560   52.8969   29.8606 O   0  0  0  0  0  0  0  0  0  0  0  0
    8.1760   52.7705   31.0571 C   0  0  0  0  0  0  0  0  0  0  0  0
    4.6969   49.6043   31.2515 O   0  0  0  0  0  0  0  0  0  0  0  0
    4.1037   51.7828   31.2491 O   0  0  0  0  0  0  0  0  0  0  0  0
   10.1848   53.8361   30.9366 C   0  0  0  0  0  0  0  0  0  0  0  0
    8.9613   53.7239   31.6760 O   0  0  0  0  0  0  0  0  0  0  0  0
    8.8127   40.1847   34.2122 O   0  0  0  0  0  0  0  0  0  0  0  0
   11.2421   40.7941   33.3697 O   0  0  0  0  0  0  0  0  0  0  0  0
   10.9187   40.6911   31.9971 C   0  0  0  0  0  0  0  0  0  0  0  0
   11.5172   39.3815   31.4407 C   0  0  0  0  0  0  0  0  0  0  0  0
   12.7493   39.0856   32.0728 O   0  0  0  0  0  0  0  0  0  0  0  0
   10.6023   38.1908   31.6665 C   0  0  0  0  0  0  0  0  0  0  0  0
   12.9319   37.6781   32.0281 C   0  0  0  0  0  0  0  0  0  0  0  0
    9.6392   38.0798   30.6452 O   0  0  0  0  0  0  0  0  0  0  0  0
   11.5715   37.0166   31.7056 C   0  0  0  0  0  0  0  0  0  0  0  0
   13.4847   37.2121   33.3235 N   0  0  0  0  0  0  0  0  0  0  0  0
   11.6187   36.3384   30.4695 O   0  0  0  0  0  0  0  0  0  0  0  0
   14.4801   36.3321   33.5724 C   0  0  0  0  0  0  0  0  0  0  0  0
   13.1137   37.6275   34.5687 C   0  0  0  0  0  0  0  0  0  0  0  0
   15.2073   35.6153   32.6738 N   0  0  0  0  0  0  0  0  0  0  0  0
   14.6759   36.2308   34.9179 C   0  0  0  0  0  0  0  0  0  0  0  0
   13.8216   37.0452   35.5781 N   0  0  0  0  0  0  0  0  0  0  0  0
   16.1640   34.7602   33.1546 C   0  0  0  0  0  0  0  0  0  0  0  0
   15.6526   35.3508   35.4129 C   0  0  0  0  0  0  0  0  0  0  0  0
   16.3794   34.6317   34.5041 N   0  0  0  0  0  0  0  0  0  0  0  0
   15.8999   35.1935   36.8088 N   0  0  0  0  0  0  0  0  0  0  0  0
    9.0121   45.4316   33.6715 H   0  0  0  0  0  0  0  0  0  0  0  0
   11.8906   45.7660   32.9470 H   0  0  0  0  0  0  0  0  0  0  0  0
   10.7257   46.9687   33.1212 H   0  0  0  0  0  0  0  0  0  0  0  0
   10.7231   44.8814   31.1558 H   0  0  0  0  0  0  0  0  0  0  0  0
    9.3418   43.8326   31.4764 H   0  0  0  0  0  0  0  0  0  0  0  0
    7.0086   44.7167   31.5809 H   0  0  0  0  0  0  0  0  0  0  0  0
   10.3460   47.1833   30.4108 H   0  0  0  0  0  0  0  0  0  0  0  0
    5.4641   46.3071   30.5041 H   0  0  0  0  0  0  0  0  0  0  0  0
    8.8255   48.7513   29.3511 H   0  0  0  0  0  0  0  0  0  0  0  0
    5.2897   50.1841   28.3599 H   0  0  0  0  0  0  0  0  0  0  0  0
    7.0349   50.4843   26.6634 H   0  0  0  0  0  0  0  0  0  0  0  0
    6.2765   48.8561   26.6134 H   0  0  0  0  0  0  0  0  0  0  0  0
    7.9245   49.0386   27.2902 H   0  0  0  0  0  0  0  0  0  0  0  0
    8.8319   50.9632   28.3055 H   0  0  0  0  0  0  0  0  0  0  0  0
    6.4091   52.7564   32.2747 H   0  0  0  0  0  0  0  0  0  0  0  0
   10.2977   54.8655   30.5364 H   0  0  0  0  0  0  0  0  0  0  0  0
   11.0479   53.5664   31.5807 H   0  0  0  0  0  0  0  0  0  0  0  0
   11.3968   41.5460   31.4729 H   0  0  0  0  0  0  0  0  0  0  0  0
    9.8299   40.7410   31.7613 H   0  0  0  0  0  0  0  0  0  0  0  0
   11.6975   39.5067   30.3481 H   0  0  0  0  0  0  0  0  0  0  0  0
   10.1077   38.2648   32.6645 H   0  0  0  0  0  0  0  0  0  0  0  0
   13.6621   37.4467   31.2209 H   0  0  0  0  0  0  0  0  0  0  0  0
    8.8975   38.6944   30.8831 H   0  0  0  0  0  0  0  0  0  0  0  0
   11.2806   36.3073   32.5170 H   0  0  0  0  0  0  0  0  0  0  0  0
   10.8492   35.7110   30.4586 H   0  0  0  0  0  0  0  0  0  0  0  0
   12.3290   38.3524   34.7444 H   0  0  0  0  0  0  0  0  0  0  0  0
   16.7559   34.1780   32.4619 H   0  0  0  0  0  0  0  0  0  0  0  0
   15.3531   35.7362   37.5137 H   0  0  0  0  0  0  0  0  0  0  0  0
   16.6344   34.5301   37.1414 H   0  0  0  0  0  0  0  0  0  0  0  0
  1  2  2  0
  1  3  1  0
  3  4  1  0
  4  5  1  0
  6  1  1  0
  7  6  1  0
  6  8  1  0
  8  9  1  0
  9 10  2  0
 11  9  1  0
 10 12  1  0
 13 11  2  0
 12 14  2  0
 14 13  1  0
 14 15  1  0
 15 16  1  0
 16 17  1  0
 16 18  1  0
 18 19  2  0
 20 18  1  0
 19 21  1  0
 22 20  2  0
 20 23  1  0
 21 24  1  0
 21 25  2  0
 25 22  1  0
 23 26  1  0
 23 27  2  0
 24 28  1  0
 25 29  1  0
 28 29  1  0
  4 30  2  0
  4 31  1  0
 32 31  1  0
 32 33  1  0
 33 34  1  0
 33 35  1  0
 34 36  1  0
 35 37  1  0
 35 38  1  0
 38 36  1  0
 36 39  1  0
 38 40  1  0
 41 39  1  0
 42 39  1  0
 43 41  2  0
 41 44  1  0
 45 42  2  0
 46 43  1  0
 44 47  2  0
 44 45  1  0
 48 46  2  0
 48 47  1  0
 47 49  1  0
  6 50  1  1
  7 51  1  0
  7 52  1  0
  8 53  1  0
  8 54  1  0
 10 55  1  0
 11 56  1  0
 12 57  1  0
 13 58  1  0
 16 59  1  6
 17 60  1  0
 17 61  1  0
 17 62  1  0
 19 63  1  0
 22 64  1  0
 28 65  1  0
 28 66  1  0
 32 67  1  0
 32 68  1  0
 33 69  1  0
 35 70  1  0
 36 71  1  0
 37 72  1  0
 38 73  1  0
 40 74  1  0
 42 75  1  0
 46 76  1  0
 49 77  1  0
 49 78  1  0
M  CHG  3   5  -1  23   1  26  -1
M  END
>  <EmbedRMS>  (315) 
0.0829335465574

$$$$

     RDKit          3D

 78 83  0  0  0  0  0  0  0  0999 V2000
   10.2836   43.7661   33.8256 C   0  0  0  0  0  0  0  0  0  0  0  0
   11.4103   43.5930   34.3753 O   0  0  0  0  0  0  0  0  0  0  0  0
    9.3640   42.7253   33.7346 O   0  0  0  0  0  0  0  0  0  0  0  0
    9.8908   41.2265   34.2938 P   0  0  0  0  0  0  0  0  0  0  0  0
   10.3732   41.4559   35.8835 O   0  0  0  0  0  0  0  0  0  0  0  0
    9.9546   45.0696   33.2040 C   0  0  1  0  0  0  0  0  0  0  0  0
   11.0272   46.0323   33.4762 N   0  0  0  0  0  0  0  0  0  0  0  0
    9.7466   44.8489   31.6881 C   0  0  0  0  0  0  0  0  0  0  0  0
    8.7922   45.8422   31.0860 C   0  0  0  0  0  0  0  0  0  0  0  0
    7.4055   45.6005   31.0976 C   0  0  0  0  0  0  0  0  0  0  0  0
    9.2820   46.9876   30.4404 C   0  0  0  0  0  0  0  0  0  0  0  0
    6.5253   46.4998   30.4805 C   0  0  0  0  0  0  0  0  0  0  0  0
    8.4006   47.8862   29.8280 C   0  0  0  0  0  0  0  0  0  0  0  0
    7.0186   47.6583   29.8552 C   0  0  0  0  0  0  0  0  0  0  0  0
    6.1713   48.5816   29.2274 O   0  0  0  0  0  0  0  0  0  0  0  0
    5.0929   49.2759   29.8666 C   0  0  2  0  0  0  0  0  0  0  0  0
    5.6146   50.1464   31.0166 C   0  0  0  0  0  0  0  0  0  0  0  0
    3.9147   48.3484   30.1585 C   0  0  0  0  0  0  0  0  0  0  0  0
    3.2228   47.8565   29.0236 C   0  0  0  0  0  0  0  0  0  0  0  0
    3.4491   47.9666   31.4668 C   0  0  0  0  0  0  0  0  0  0  0  0
    2.1076   47.0515   29.2124 C   0  0  0  0  0  0  0  0  0  0  0  0
    2.3008   47.1562   31.5968 C   0  0  0  0  0  0  0  0  0  0  0  0
    4.1362   48.3341   32.6637 N   0  0  0  0  0  0  0  0  0  0  0  0
    1.2914   46.4767   28.2571 O   0  0  0  0  0  0  0  0  0  0  0  0
    1.6631   46.7201   30.4449 C   0  0  0  0  0  0  0  0  0  0  0  0
    3.4863   49.1074   33.5967 O   0  0  0  0  0  0  0  0  0  0  0  0
    5.1418   47.6836   33.0137 O   0  0  0  0  0  0  0  0  0  0  0  0
    0.2689   45.7359   28.9371 C   0  0  0  0  0  0  0  0  0  0  0  0
    0.5437   45.9181   30.3328 O   0  0  0  0  0  0  0  0  0  0  0  0
    8.8127   40.1848   34.2122 O   0  0  0  0  0  0  0  0  0  0  0  0
   11.2420   40.7941   33.3697 O   0  0  0  0  0  0  0  0  0  0  0  0
   10.9187   40.6911   31.9971 C   0  0  0  0  0  0  0  0  0  0  0  0
   11.5172   39.3815   31.4407 C   0  0  0  0  0  0  0  0  0  0  0  0
   12.7493   39.0856   32.0728 O   0  0  0  0  0  0  0  0  0  0  0  0
   10.6023   38.1908   31.6665 C   0  0  0  0  0  0  0  0  0  0  0  0
   12.9319   37.6781   32.0281 C   0  0  0  0  0  0  0  0  0  0  0  0
    9.6392   38.0798   30.6452 O   0  0  0  0  0  0  0  0  0  0  0  0
   11.5715   37.0166   31.7056 C   0  0  0  0  0  0  0  0  0  0  0  0
   13.4846   37.2121   33.3235 N   0  0  0  0  0  0  0  0  0  0  0  0
   11.6186   36.3383   30.4695 O   0  0  0  0  0  0  0  0  0  0  0  0
   14.4801   36.3321   33.5724 C   0  0  0  0  0  0  0  0  0  0  0  0
   13.1137   37.6275   34.5687 C   0  0  0  0  0  0  0  0  0  0  0  0
   15.2073   35.6153   32.6738 N   0  0  0  0  0  0  0  0  0  0  0  0
   14.6759   36.2308   34.9179 C   0  0  0  0  0  0  0  0  0  0  0  0
   13.8216   37.0452   35.5781 N   0  0  0  0  0  0  0  0  0  0  0  0
   16.1640   34.7602   33.1546 C   0  0  0  0  0  0  0  0  0  0  0  0
   15.6526   35.3508   35.4129 C   0  0  0  0  0  0  0  0  0  0  0  0
   16.3794   34.6317   34.5041 N   0  0  0  0  0  0  0  0  0  0  0  0
   15.8999   35.1935   36.8088 N   0  0  0  0  0  0  0  0  0  0  0  0
    9.0120   45.4317   33.6720 H   0  0  0  0  0  0  0  0  0  0  0  0
   10.7258   46.9689   33.1219 H   0  0  0  0  0  0  0  0  0  0  0  0
   11.8906   45.7661   32.9476 H   0  0  0  0  0  0  0  0  0  0  0  0
   10.7230   44.8828   31.1560 H   0  0  0  0  0  0  0  0  0  0  0  0
    9.3417   43.8338   31.4761 H   0  0  0  0  0  0  0  0  0  0  0  0
    7.0099   44.7098   31.5701 H   0  0  0  0  0  0  0  0  0  0  0  0
   10.3464   47.1849   30.4066 H   0  0  0  0  0  0  0  0  0  0  0  0
    5.4719   46.2667   30.4685 H   0  0  0  0  0  0  0  0  0  0  0  0
    8.7920   48.7675   29.3360 H   0  0  0  0  0  0  0  0  0  0  0  0
    4.7126   50.0118   29.1235 H   0  0  0  0  0  0  0  0  0  0  0  0
    6.2139   49.5551   31.7362 H   0  0  0  0  0  0  0  0  0  0  0  0
    4.7745   50.6563   31.5338 H   0  0  0  0  0  0  0  0  0  0  0  0
    6.2853   50.9308   30.6056 H   0  0  0  0  0  0  0  0  0  0  0  0
    3.5400   48.1063   28.0185 H   0  0  0  0  0  0  0  0  0  0  0  0
    1.9340   46.8573   32.5706 H   0  0  0  0  0  0  0  0  0  0  0  0
   -0.7325   46.1450   28.6872 H   0  0  0  0  0  0  0  0  0  0  0  0
    0.3329   44.6599   28.6712 H   0  0  0  0  0  0  0  0  0  0  0  0
   11.3968   41.5460   31.4728 H   0  0  0  0  0  0  0  0  0  0  0  0
    9.8299   40.7410   31.7613 H   0  0  0  0  0  0  0  0  0  0  0  0
   11.6975   39.5067   30.3481 H   0  0  0  0  0  0  0  0  0  0  0  0
   10.1076   38.2648   32.6645 H   0  0  0  0  0  0  0  0  0  0  0  0
   13.6621   37.4467   31.2209 H   0  0  0  0  0  0  0  0  0  0  0  0
    8.8974   38.6943   30.8831 H   0  0  0  0  0  0  0  0  0  0  0  0
   11.2806   36.3073   32.5171 H   0  0  0  0  0  0  0  0  0  0  0  0
   10.8492   35.7111   30.4586 H   0  0  0  0  0  0  0  0  0  0  0  0
   12.3290   38.3524   34.7444 H   0  0  0  0  0  0  0  0  0  0  0  0
   16.7559   34.1780   32.4619 H   0  0  0  0  0  0  0  0  0  0  0  0
   16.6344   34.5301   37.1414 H   0  0  0  0  0  0  0  0  0  0  0  0
   15.3532   35.7362   37.5137 H   0  0  0  0  0  0  0  0  0  0  0  0
  1  2  2  0
  1  3  1  0
  3  4  1  0
  4  5  1  0
  6  1  1  0
  7  6  1  0
  6  8  1  0
  8  9  1  0
  9 10  2  0
 11  9  1  0
 10 12  1  0
 13 11  2  0
 12 14  2  0
 14 13  1  0
 14 15  1  0
 15 16  1  0
 16 17  1  0
 16 18  1  0
 18 19  2  0
 20 18  1  0
 19 21  1  0
 22 20  2  0
 20 23  1  0
 21 24  1  0
 21 25  2  0
 25 22  1  0
 23 26  1  0
 23 27  2  0
 24 28  1  0
 25 29  1  0
 28 29  1  0
  4 30  2  0
  4 31  1  0
 32 31  1  0
 32 33  1  0
 33 34  1  0
 33 35  1  0
 34 36  1  0
 35 37  1  0
 35 38  1  0
 38 36  1  0
 36 39  1  0
 38 40  1  0
 41 39  1  0
 42 39  1  0
 43 41  2  0
 41 44  1  0
 45 42  2  0
 46 43  1  0
 44 47  2  0
 44 45  1  0
 48 46  2  0
 48 47  1  0
 47 49  1  0
  6 50  1  1
  7 51  1  0
  7 52  1  0
  8 53  1  0
  8 54  1  0
 10 55  1  0
 11 56  1  0
 12 57  1  0
 13 58  1  0
 16 59  1  6
 17 60  1  0
 17 61  1  0
 17 62  1  0
 19 63  1  0
 22 64  1  0
 28 65  1  0
 28 66  1  0
 32 67  1  0
 32 68  1  0
 33 69  1  0
 35 70  1  0
 36 71  1  0
 37 72  1  0
 38 73  1  0
 40 74  1  0
 42 75  1  0
 46 76  1  0
 49 77  1  0
 49 78  1  0
M  CHG  3   5  -1  23   1  26  -1
M  END
>  <EmbedRMS>  (316) 
0.0829697104835

$$$$

     RDKit          3D

 78 83  0  0  0  0  0  0  0  0999 V2000
   10.2804   43.7665   33.8250 C   0  0  0  0  0  0  0  0  0  0  0  0
   11.4110   43.5919   34.3666 O   0  0  0  0  0  0  0  0  0  0  0  0
    9.3619   42.7250   33.7344 O   0  0  0  0  0  0  0  0  0  0  0  0
    9.8899   41.2267   34.2940 P   0  0  0  0  0  0  0  0  0  0  0  0
   10.3734   41.4567   35.8833 O   0  0  0  0  0  0  0  0  0  0  0  0
    9.9458   45.0737   33.2112 C   0  0  1  0  0  0  0  0  0  0  0  0
   11.0264   46.0294   33.4709 N   0  0  0  0  0  0  0  0  0  0  0  0
    9.7541   44.8543   31.6949 C   0  0  0  0  0  0  0  0  0  0  0  0
    8.7957   45.8411   31.0847 C   0  0  0  0  0  0  0  0  0  0  0  0
    7.4090   45.5996   31.1007 C   0  0  0  0  0  0  0  0  0  0  0  0
    9.2825   46.9876   30.4390 C   0  0  0  0  0  0  0  0  0  0  0  0
    6.5260   46.4983   30.4859 C   0  0  0  0  0  0  0  0  0  0  0  0
    8.3998   47.8871   29.8305 C   0  0  0  0  0  0  0  0  0  0  0  0
    7.0184   47.6556   29.8483 C   0  0  0  0  0  0  0  0  0  0  0  0
    6.1790   48.5981   29.2314 O   0  0  0  0  0  0  0  0  0  0  0  0
    4.7503   48.5545   29.2283 C   0  0  2  0  0  0  0  0  0  0  0  0
    4.2011   49.5939   28.2517 C   0  0  0  0  0  0  0  0  0  0  0  0
    4.1632   48.7623   30.6172 C   0  0  0  0  0  0  0  0  0  0  0  0
    2.9621   48.0760   30.9199 C   0  0  0  0  0  0  0  0  0  0  0  0
    4.7841   49.5678   31.6354 C   0  0  0  0  0  0  0  0  0  0  0  0
    2.4385   48.1813   32.2011 C   0  0  0  0  0  0  0  0  0  0  0  0
    4.2113   49.6218   32.9262 C   0  0  0  0  0  0  0  0  0  0  0  0
    5.9857   50.3167   31.3963 N   0  0  0  0  0  0  0  0  0  0  0  0
    1.2961   47.5965   32.7128 O   0  0  0  0  0  0  0  0  0  0  0  0
    3.0388   48.9179   33.1629 C   0  0  0  0  0  0  0  0  0  0  0  0
    6.9439   50.4000   32.3801 O   0  0  0  0  0  0  0  0  0  0  0  0
    6.0749   51.0690   30.4054 O   0  0  0  0  0  0  0  0  0  0  0  0
    1.1728   47.9937   34.0853 C   0  0  0  0  0  0  0  0  0  0  0  0
    2.3063   48.8371   34.3316 O   0  0  0  0  0  0  0  0  0  0  0  0
    8.8123   40.1844   34.2133 O   0  0  0  0  0  0  0  0  0  0  0  0
   11.2405   40.7942   33.3692 O   0  0  0  0  0  0  0  0  0  0  0  0
   10.9150   40.6905   31.9972 C   0  0  0  0  0  0  0  0  0  0  0  0
   11.5252   39.3886   31.4375 C   0  0  0  0  0  0  0  0  0  0  0  0
   12.7499   39.0874   32.0799 O   0  0  0  0  0  0  0  0  0  0  0  0
   10.6092   38.1926   31.6470 C   0  0  0  0  0  0  0  0  0  0  0  0
   12.9332   37.6793   32.0294 C   0  0  0  0  0  0  0  0  0  0  0  0
    9.6121   38.0894   30.6543 O   0  0  0  0  0  0  0  0  0  0  0  0
   11.5743   37.0145   31.7024 C   0  0  0  0  0  0  0  0  0  0  0  0
   13.4844   37.2108   33.3241 N   0  0  0  0  0  0  0  0  0  0  0  0
   11.6297   36.3239   30.4740 O   0  0  0  0  0  0  0  0  0  0  0  0
   14.4802   36.3313   33.5727 C   0  0  0  0  0  0  0  0  0  0  0  0
   13.1138   37.6266   34.5692 C   0  0  0  0  0  0  0  0  0  0  0  0
   15.2075   35.6149   32.6739 N   0  0  0  0  0  0  0  0  0  0  0  0
   14.6761   36.2303   34.9181 C   0  0  0  0  0  0  0  0  0  0  0  0
   13.8220   37.0447   35.5785 N   0  0  0  0  0  0  0  0  0  0  0  0
   16.1643   34.7600   33.1547 C   0  0  0  0  0  0  0  0  0  0  0  0
   15.6529   35.3505   35.4130 C   0  0  0  0  0  0  0  0  0  0  0  0
   16.3798   34.6315   34.5042 N   0  0  0  0  0  0  0  0  0  0  0  0
   15.9003   35.1932   36.8090 N   0  0  0  0  0  0  0  0  0  0  0  0
    8.9993   45.4382   33.6720 H   0  0  0  0  0  0  0  0  0  0  0  0
   11.0499   46.2278   34.4983 H   0  0  0  0  0  0  0  0  0  0  0  0
   10.7760   46.9371   33.0161 H   0  0  0  0  0  0  0  0  0  0  0  0
    9.3648   43.8355   31.4710 H   0  0  0  0  0  0  0  0  0  0  0  0
   10.7413   44.9081   31.1837 H   0  0  0  0  0  0  0  0  0  0  0  0
    7.0150   44.7147   31.5852 H   0  0  0  0  0  0  0  0  0  0  0  0
   10.3463   47.1878   30.4051 H   0  0  0  0  0  0  0  0  0  0  0  0
    5.4678   46.2815   30.5162 H   0  0  0  0  0  0  0  0  0  0  0  0
    8.7912   48.7709   29.3429 H   0  0  0  0  0  0  0  0  0  0  0  0
    4.4410   47.5603   28.8341 H   0  0  0  0  0  0  0  0  0  0  0  0
    3.0982   49.4897   28.1658 H   0  0  0  0  0  0  0  0  0  0  0  0
    4.4333   50.6254   28.5833 H   0  0  0  0  0  0  0  0  0  0  0  0
    4.6463   49.4356   27.2466 H   0  0  0  0  0  0  0  0  0  0  0  0
    2.4591   47.4642   30.1815 H   0  0  0  0  0  0  0  0  0  0  0  0
    4.6584   50.2115   33.7162 H   0  0  0  0  0  0  0  0  0  0  0  0
    1.2068   47.1032   34.7474 H   0  0  0  0  0  0  0  0  0  0  0  0
    0.2317   48.5626   34.2375 H   0  0  0  0  0  0  0  0  0  0  0  0
   11.3800   41.5528   31.4730 H   0  0  0  0  0  0  0  0  0  0  0  0
    9.8241   40.7215   31.7641 H   0  0  0  0  0  0  0  0  0  0  0  0
   11.7266   39.5310   30.3513 H   0  0  0  0  0  0  0  0  0  0  0  0
   10.1110   38.2747   32.6387 H   0  0  0  0  0  0  0  0  0  0  0  0
   13.6652   37.4520   31.2226 H   0  0  0  0  0  0  0  0  0  0  0  0
   10.0511   38.1143   29.7645 H   0  0  0  0  0  0  0  0  0  0  0  0
   11.2762   36.3141   32.5189 H   0  0  0  0  0  0  0  0  0  0  0  0
   10.8593   35.6978   30.4640 H   0  0  0  0  0  0  0  0  0  0  0  0
   12.3294   38.3518   34.7449 H   0  0  0  0  0  0  0  0  0  0  0  0
   16.7564   34.1780   32.4620 H   0  0  0  0  0  0  0  0  0  0  0  0
   16.6349   34.5300   37.1415 H   0  0  0  0  0  0  0  0  0  0  0  0
   15.3534   35.7359   37.5138 H   0  0  0  0  0  0  0  0  0  0  0  0
  1  2  2  0
  1  3  1  0
  3  4  1  0
  4  5  1  0
  6  1  1  0
  7  6  1  0
  6  8  1  0
  8  9  1  0
  9 10  2  0
 11  9  1  0
 10 12  1  0
 13 11  2  0
 12 14  2  0
 14 13  1  0
 14 15  1  0
 15 16  1  0
 16 17  1  0
 16 18  1  0
 18 19  2  0
 20 18  1  0
 19 21  1  0
 22 20  2  0
 20 23  1  0
 21 24  1  0
 21 25  2  0
 25 22  1  0
 23 26  1  0
 23 27  2  0
 24 28  1  0
 25 29  1  0
 28 29  1  0
  4 30  2  0
  4 31  1  0
 32 31  1  0
 32 33  1  0
 33 34  1  0
 33 35  1  0
 34 36  1  0
 35 37  1  0
 35 38  1  0
 38 36  1  0
 36 39  1  0
 38 40  1  0
 41 39  1  0
 42 39  1  0
 43 41  2  0
 41 44  1  0
 45 42  2  0
 46 43  1  0
 44 47  2  0
 44 45  1  0
 48 46  2  0
 48 47  1  0
 47 49  1  0
  6 50  1  1
  7 51  1  0
  7 52  1  0
  8 53  1  0
  8 54  1  0
 10 55  1  0
 11 56  1  0
 12 57  1  0
 13 58  1  0
 16 59  1  6
 17 60  1  0
 17 61  1  0
 17 62  1  0
 19 63  1  0
 22 64  1  0
 28 65  1  0
 28 66  1  0
 32 67  1  0
 32 68  1  0
 33 69  1  0
 35 70  1  0
 36 71  1  0
 37 72  1  0
 38 73  1  0
 40 74  1  0
 42 75  1  0
 46 76  1  0
 49 77  1  0
 49 78  1  0
M  CHG  3   5  -1  23   1  26  -1
M  END
>  <EmbedRMS>  (317) 
0.0816430307937

$$$$

     RDKit          3D

 78 83  0  0  0  0  0  0  0  0999 V2000
   10.2804   43.7664   33.8251 C   0  0  0  0  0  0  0  0  0  0  0  0
   11.4111   43.5918   34.3667 O   0  0  0  0  0  0  0  0  0  0  0  0
    9.3618   42.7249   33.7345 O   0  0  0  0  0  0  0  0  0  0  0  0
    9.8902   41.2265   34.2931 P   0  0  0  0  0  0  0  0  0  0  0  0
   10.3743   41.4562   35.8824 O   0  0  0  0  0  0  0  0  0  0  0  0
    9.9459   45.0736   33.2114 C   0  0  1  0  0  0  0  0  0  0  0  0
   11.0267   46.0291   33.4707 N   0  0  0  0  0  0  0  0  0  0  0  0
    9.7535   44.8539   31.6952 C   0  0  0  0  0  0  0  0  0  0  0  0
    8.7954   45.8413   31.0853 C   0  0  0  0  0  0  0  0  0  0  0  0
    7.4089   45.6003   31.1004 C   0  0  0  0  0  0  0  0  0  0  0  0
    9.2827   46.9873   30.4396 C   0  0  0  0  0  0  0  0  0  0  0  0
    6.5287   46.5004   30.4844 C   0  0  0  0  0  0  0  0  0  0  0  0
    8.4026   47.8887   29.8291 C   0  0  0  0  0  0  0  0  0  0  0  0
    7.0127   47.6529   29.8496 C   0  0  0  0  0  0  0  0  0  0  0  0
    6.0798   48.5165   29.2518 O   0  0  0  0  0  0  0  0  0  0  0  0
    6.3557   49.8058   28.7018 C   0  0  2  0  0  0  0  0  0  0  0  0
    6.6613   50.8280   29.8055 C   0  0  0  0  0  0  0  0  0  0  0  0
    5.1848   50.2564   27.8415 C   0  0  0  0  0  0  0  0  0  0  0  0
    5.4313   50.5041   26.4673 C   0  0  0  0  0  0  0  0  0  0  0  0
    3.8625   50.4836   28.3627 C   0  0  0  0  0  0  0  0  0  0  0  0
    4.3922   50.9761   25.6766 C   0  0  0  0  0  0  0  0  0  0  0  0
    2.8508   50.9806   27.5107 C   0  0  0  0  0  0  0  0  0  0  0  0
    3.5277   50.2414   29.7368 N   0  0  0  0  0  0  0  0  0  0  0  0
    4.4104   51.2864   24.3303 O   0  0  0  0  0  0  0  0  0  0  0  0
    3.1579   51.2074   26.1768 C   0  0  0  0  0  0  0  0  0  0  0  0
    2.7328   51.1408   30.4090 O   0  0  0  0  0  0  0  0  0  0  0  0
    3.7260   49.1197   30.2449 O   0  0  0  0  0  0  0  0  0  0  0  0
    3.1007   51.7411   23.9635 C   0  0  0  0  0  0  0  0  0  0  0  0
    2.3322   51.6749   25.1724 O   0  0  0  0  0  0  0  0  0  0  0  0
    8.8124   40.1844   34.2130 O   0  0  0  0  0  0  0  0  0  0  0  0
   11.2402   40.7949   33.3666 O   0  0  0  0  0  0  0  0  0  0  0  0
   10.9125   40.6859   31.9952 C   0  0  0  0  0  0  0  0  0  0  0  0
   11.5175   39.3786   31.4405 C   0  0  0  0  0  0  0  0  0  0  0  0
   12.7490   39.0864   32.0753 O   0  0  0  0  0  0  0  0  0  0  0  0
   10.6060   38.1867   31.6656 C   0  0  0  0  0  0  0  0  0  0  0  0
   12.9355   37.6796   32.0292 C   0  0  0  0  0  0  0  0  0  0  0  0
    9.6399   38.0902   30.6471 O   0  0  0  0  0  0  0  0  0  0  0  0
   11.5765   37.0145   31.7044 C   0  0  0  0  0  0  0  0  0  0  0  0
   13.4858   37.2125   33.3244 N   0  0  0  0  0  0  0  0  0  0  0  0
   11.6101   36.3397   30.4673 O   0  0  0  0  0  0  0  0  0  0  0  0
   14.4805   36.3319   33.5730 C   0  0  0  0  0  0  0  0  0  0  0  0
   13.1143   37.6276   34.5694 C   0  0  0  0  0  0  0  0  0  0  0  0
   15.2076   35.6153   32.6741 N   0  0  0  0  0  0  0  0  0  0  0  0
   14.6760   36.2304   34.9184 C   0  0  0  0  0  0  0  0  0  0  0  0
   13.8219   37.0449   35.5787 N   0  0  0  0  0  0  0  0  0  0  0  0
   16.1641   34.7600   33.1548 C   0  0  0  0  0  0  0  0  0  0  0  0
   15.6528   35.3505   35.4132 C   0  0  0  0  0  0  0  0  0  0  0  0
   16.3795   34.6314   34.5043 N   0  0  0  0  0  0  0  0  0  0  0  0
   15.9002   35.1931   36.8091 N   0  0  0  0  0  0  0  0  0  0  0  0
    8.9996   45.4382   33.6726 H   0  0  0  0  0  0  0  0  0  0  0  0
   11.0504   46.2278   34.4981 H   0  0  0  0  0  0  0  0  0  0  0  0
   10.7764   46.9368   33.0157 H   0  0  0  0  0  0  0  0  0  0  0  0
   10.7405   44.9070   31.1836 H   0  0  0  0  0  0  0  0  0  0  0  0
    9.3635   43.8353   31.4716 H   0  0  0  0  0  0  0  0  0  0  0  0
    7.0133   44.7157   31.5841 H   0  0  0  0  0  0  0  0  0  0  0  0
   10.3472   47.1841   30.4040 H   0  0  0  0  0  0  0  0  0  0  0  0
    5.4644   46.3025   30.5035 H   0  0  0  0  0  0  0  0  0  0  0  0
    8.8206   48.7546   29.3376 H   0  0  0  0  0  0  0  0  0  0  0  0
    7.2582   49.7300   28.0574 H   0  0  0  0  0  0  0  0  0  0  0  0
    6.7531   51.8457   29.3694 H   0  0  0  0  0  0  0  0  0  0  0  0
    7.6205   50.5831   30.3051 H   0  0  0  0  0  0  0  0  0  0  0  0
    5.8703   50.8367   30.5814 H   0  0  0  0  0  0  0  0  0  0  0  0
    6.4075   50.3477   26.0260 H   0  0  0  0  0  0  0  0  0  0  0  0
    1.8494   51.1679   27.8766 H   0  0  0  0  0  0  0  0  0  0  0  0
    2.6631   51.0710   23.1941 H   0  0  0  0  0  0  0  0  0  0  0  0
    3.1465   52.7874   23.5953 H   0  0  0  0  0  0  0  0  0  0  0  0
   11.3803   41.5436   31.4661 H   0  0  0  0  0  0  0  0  0  0  0  0
    9.8214   40.7199   31.7634 H   0  0  0  0  0  0  0  0  0  0  0  0
   11.6999   39.5040   30.3482 H   0  0  0  0  0  0  0  0  0  0  0  0
   10.1085   38.2766   32.6603 H   0  0  0  0  0  0  0  0  0  0  0  0
   13.6680   37.4521   31.2229 H   0  0  0  0  0  0  0  0  0  0  0  0
    9.0016   37.3867   30.9350 H   0  0  0  0  0  0  0  0  0  0  0  0
   11.2666   36.3062   32.5083 H   0  0  0  0  0  0  0  0  0  0  0  0
   12.1390   35.5126   30.6150 H   0  0  0  0  0  0  0  0  0  0  0  0
   12.3300   38.3529   34.7450 H   0  0  0  0  0  0  0  0  0  0  0  0
   16.7560   34.1779   32.4620 H   0  0  0  0  0  0  0  0  0  0  0  0
   15.3535   35.7359   37.5140 H   0  0  0  0  0  0  0  0  0  0  0  0
   16.6348   34.5298   37.1416 H   0  0  0  0  0  0  0  0  0  0  0  0
  1  2  2  0
  1  3  1  0
  3  4  1  0
  4  5  1  0
  6  1  1  0
  7  6  1  0
  6  8  1  0
  8  9  1  0
  9 10  2  0
 11  9  1  0
 10 12  1  0
 13 11  2  0
 12 14  2  0
 14 13  1  0
 14 15  1  0
 15 16  1  0
 16 17  1  0
 16 18  1  0
 18 19  2  0
 20 18  1  0
 19 21  1  0
 22 20  2  0
 20 23  1  0
 21 24  1  0
 21 25  2  0
 25 22  1  0
 23 26  1  0
 23 27  2  0
 24 28  1  0
 25 29  1  0
 28 29  1  0
  4 30  2  0
  4 31  1  0
 32 31  1  0
 32 33  1  0
 33 34  1  0
 33 35  1  0
 34 36  1  0
 35 37  1  0
 35 38  1  0
 38 36  1  0
 36 39  1  0
 38 40  1  0
 41 39  1  0
 42 39  1  0
 43 41  2  0
 41 44  1  0
 45 42  2  0
 46 43  1  0
 44 47  2  0
 44 45  1  0
 48 46  2  0
 48 47  1  0
 47 49  1  0
  6 50  1  1
  7 51  1  0
  7 52  1  0
  8 53  1  0
  8 54  1  0
 10 55  1  0
 11 56  1  0
 12 57  1  0
 13 58  1  0
 16 59  1  6
 17 60  1  0
 17 61  1  0
 17 62  1  0
 19 63  1  0
 22 64  1  0
 28 65  1  0
 28 66  1  0
 32 67  1  0
 32 68  1  0
 33 69  1  0
 35 70  1  0
 36 71  1  0
 37 72  1  0
 38 73  1  0
 40 74  1  0
 42 75  1  0
 46 76  1  0
 49 77  1  0
 49 78  1  0
M  CHG  3   5  -1  23   1  26  -1
M  END
>  <EmbedRMS>  (318) 
0.0822092202976

$$$$

     RDKit          3D

 78 83  0  0  0  0  0  0  0  0999 V2000
   10.2833   43.7663   33.8257 C   0  0  0  0  0  0  0  0  0  0  0  0
   11.4101   43.5932   34.3752 O   0  0  0  0  0  0  0  0  0  0  0  0
    9.3634   42.7257   33.7353 O   0  0  0  0  0  0  0  0  0  0  0  0
    9.8900   41.2270   34.2948 P   0  0  0  0  0  0  0  0  0  0  0  0
   10.3733   41.4563   35.8841 O   0  0  0  0  0  0  0  0  0  0  0  0
    9.9545   45.0695   33.2033 C   0  0  1  0  0  0  0  0  0  0  0  0
   11.0271   46.0323   33.4754 N   0  0  0  0  0  0  0  0  0  0  0  0
    9.7469   44.8476   31.6873 C   0  0  0  0  0  0  0  0  0  0  0  0
    8.7926   45.8396   31.0830 C   0  0  0  0  0  0  0  0  0  0  0  0
    7.4060   45.6016   31.0992 C   0  0  0  0  0  0  0  0  0  0  0  0
    9.2820   46.9876   30.4433 C   0  0  0  0  0  0  0  0  0  0  0  0
    6.5274   46.5046   30.4859 C   0  0  0  0  0  0  0  0  0  0  0  0
    8.4030   47.8904   29.8340 C   0  0  0  0  0  0  0  0  0  0  0  0
    7.0135   47.6524   29.8441 C   0  0  0  0  0  0  0  0  0  0  0  0
    6.0764   48.5236   29.2540 O   0  0  0  0  0  0  0  0  0  0  0  0
    6.3329   49.5865   28.3207 C   0  0  2  0  0  0  0  0  0  0  0  0
    7.1507   49.0658   27.1207 C   0  0  0  0  0  0  0  0  0  0  0  0
    6.9337   50.8346   28.9739 C   0  0  0  0  0  0  0  0  0  0  0  0
    7.1811   50.8599   30.3730 C   0  0  0  0  0  0  0  0  0  0  0  0
    7.2467   52.0075   28.2019 C   0  0  0  0  0  0  0  0  0  0  0  0
    7.8011   51.9734   30.9234 C   0  0  0  0  0  0  0  0  0  0  0  0
    7.8945   53.1031   28.8148 C   0  0  0  0  0  0  0  0  0  0  0  0
    6.8849   52.1225   26.8182 N   0  0  0  0  0  0  0  0  0  0  0  0
    8.1550   52.1947   32.2405 O   0  0  0  0  0  0  0  0  0  0  0  0
    8.1525   53.0427   30.1759 C   0  0  0  0  0  0  0  0  0  0  0  0
    7.7354   52.7546   25.9408 O   0  0  0  0  0  0  0  0  0  0  0  0
    5.7142   51.8852   26.4566 O   0  0  0  0  0  0  0  0  0  0  0  0
    8.7716   53.4869   32.3218 C   0  0  0  0  0  0  0  0  0  0  0  0
    8.7484   53.9944   30.9808 O   0  0  0  0  0  0  0  0  0  0  0  0
    8.8121   40.1850   34.2133 O   0  0  0  0  0  0  0  0  0  0  0  0
   11.2403   40.7947   33.3700 O   0  0  0  0  0  0  0  0  0  0  0  0
   10.9144   40.6914   31.9982 C   0  0  0  0  0  0  0  0  0  0  0  0
   11.5270   39.3912   31.4385 C   0  0  0  0  0  0  0  0  0  0  0  0
   12.7520   39.0911   32.0836 O   0  0  0  0  0  0  0  0  0  0  0  0
   10.6113   38.1932   31.6451 C   0  0  0  0  0  0  0  0  0  0  0  0
   12.9413   37.6838   32.0297 C   0  0  0  0  0  0  0  0  0  0  0  0
    9.6064   38.0878   30.6599 O   0  0  0  0  0  0  0  0  0  0  0  0
   11.5822   37.0197   31.6877 C   0  0  0  0  0  0  0  0  0  0  0  0
   13.4840   37.2104   33.3254 N   0  0  0  0  0  0  0  0  0  0  0  0
   11.6179   36.3072   30.4691 O   0  0  0  0  0  0  0  0  0  0  0  0
   14.4797   36.3309   33.5738 C   0  0  0  0  0  0  0  0  0  0  0  0
   13.1137   37.6269   34.5702 C   0  0  0  0  0  0  0  0  0  0  0  0
   15.2074   35.6152   32.6747 N   0  0  0  0  0  0  0  0  0  0  0  0
   14.6756   36.2298   34.9190 C   0  0  0  0  0  0  0  0  0  0  0  0
   13.8217   37.0446   35.5793 N   0  0  0  0  0  0  0  0  0  0  0  0
   16.1643   34.7603   33.1551 C   0  0  0  0  0  0  0  0  0  0  0  0
   15.6528   35.3503   35.4136 C   0  0  0  0  0  0  0  0  0  0  0  0
   16.3798   34.6316   34.5046 N   0  0  0  0  0  0  0  0  0  0  0  0
   15.9004   35.1931   36.8094 N   0  0  0  0  0  0  0  0  0  0  0  0
    9.0118   45.4319   33.6707 H   0  0  0  0  0  0  0  0  0  0  0  0
   10.7255   46.9689   33.1214 H   0  0  0  0  0  0  0  0  0  0  0  0
   11.8903   45.7662   32.9466 H   0  0  0  0  0  0  0  0  0  0  0  0
   10.7233   44.8810   31.1555 H   0  0  0  0  0  0  0  0  0  0  0  0
    9.3421   43.8323   31.4762 H   0  0  0  0  0  0  0  0  0  0  0  0
    7.0084   44.7175   31.5823 H   0  0  0  0  0  0  0  0  0  0  0  0
   10.3459   47.1895   30.4209 H   0  0  0  0  0  0  0  0  0  0  0  0
    5.4627   46.3093   30.5070 H   0  0  0  0  0  0  0  0  0  0  0  0
    8.8173   48.7802   29.3873 H   0  0  0  0  0  0  0  0  0  0  0  0
    5.3365   49.8811   27.9304 H   0  0  0  0  0  0  0  0  0  0  0  0
    8.2394   49.2194   27.2642 H   0  0  0  0  0  0  0  0  0  0  0  0
    6.8551   49.5828   26.1859 H   0  0  0  0  0  0  0  0  0  0  0  0
    6.9582   47.9832   26.9640 H   0  0  0  0  0  0  0  0  0  0  0  0
    6.9091   50.0444   31.0265 H   0  0  0  0  0  0  0  0  0  0  0  0
    8.1527   53.9914   28.2529 H   0  0  0  0  0  0  0  0  0  0  0  0
    9.8189   53.3910   32.6772 H   0  0  0  0  0  0  0  0  0  0  0  0
    8.1864   54.1501   32.9928 H   0  0  0  0  0  0  0  0  0  0  0  0
   11.3776   41.5549   31.4744 H   0  0  0  0  0  0  0  0  0  0  0  0
    9.8234   40.7201   31.7654 H   0  0  0  0  0  0  0  0  0  0  0  0
   11.7311   39.5362   30.3532 H   0  0  0  0  0  0  0  0  0  0  0  0
   10.1203   38.2696   32.6410 H   0  0  0  0  0  0  0  0  0  0  0  0
   13.6850   37.4639   31.2321 H   0  0  0  0  0  0  0  0  0  0  0  0
   10.0251   38.1792   29.7654 H   0  0  0  0  0  0  0  0  0  0  0  0
   11.2757   36.3135   32.4908 H   0  0  0  0  0  0  0  0  0  0  0  0
   11.9838   36.9111   29.7708 H   0  0  0  0  0  0  0  0  0  0  0  0
   12.3307   38.3536   34.7457 H   0  0  0  0  0  0  0  0  0  0  0  0
   16.7566   34.1787   32.4623 H   0  0  0  0  0  0  0  0  0  0  0  0
   16.6353   34.5301   37.1419 H   0  0  0  0  0  0  0  0  0  0  0  0
   15.3535   35.7355   37.5144 H   0  0  0  0  0  0  0  0  0  0  0  0
  1  2  2  0
  1  3  1  0
  3  4  1  0
  4  5  1  0
  6  1  1  0
  7  6  1  0
  6  8  1  0
  8  9  1  0
  9 10  2  0
 11  9  1  0
 10 12  1  0
 13 11  2  0
 12 14  2  0
 14 13  1  0
 14 15  1  0
 15 16  1  0
 16 17  1  0
 16 18  1  0
 18 19  2  0
 20 18  1  0
 19 21  1  0
 22 20  2  0
 20 23  1  0
 21 24  1  0
 21 25  2  0
 25 22  1  0
 23 26  1  0
 23 27  2  0
 24 28  1  0
 25 29  1  0
 28 29  1  0
  4 30  2  0
  4 31  1  0
 32 31  1  0
 32 33  1  0
 33 34  1  0
 33 35  1  0
 34 36  1  0
 35 37  1  0
 35 38  1  0
 38 36  1  0
 36 39  1  0
 38 40  1  0
 41 39  1  0
 42 39  1  0
 43 41  2  0
 41 44  1  0
 45 42  2  0
 46 43  1  0
 44 47  2  0
 44 45  1  0
 48 46  2  0
 48 47  1  0
 47 49  1  0
  6 50  1  1
  7 51  1  0
  7 52  1  0
  8 53  1  0
  8 54  1  0
 10 55  1  0
 11 56  1  0
 12 57  1  0
 13 58  1  0
 16 59  1  6
 17 60  1  0
 17 61  1  0
 17 62  1  0
 19 63  1  0
 22 64  1  0
 28 65  1  0
 28 66  1  0
 32 67  1  0
 32 68  1  0
 33 69  1  0
 35 70  1  0
 36 71  1  0
 37 72  1  0
 38 73  1  0
 40 74  1  0
 42 75  1  0
 46 76  1  0
 49 77  1  0
 49 78  1  0
M  CHG  3   5  -1  23   1  26  -1
M  END
>  <EmbedRMS>  (319) 
0.0808534019207

$$$$

     RDKit          3D

 78 83  0  0  0  0  0  0  0  0999 V2000
   10.2838   43.7627   33.8276 C   0  0  0  0  0  0  0  0  0  0  0  0
   11.4103   43.5863   34.3766 O   0  0  0  0  0  0  0  0  0  0  0  0
    9.3628   42.7238   33.7357 O   0  0  0  0  0  0  0  0  0  0  0  0
    9.8890   41.2252   34.2949 P   0  0  0  0  0  0  0  0  0  0  0  0
   10.3724   41.4548   35.8843 O   0  0  0  0  0  0  0  0  0  0  0  0
    9.9549   45.0700   33.2063 C   0  0  1  0  0  0  0  0  0  0  0  0
   11.0198   46.0481   33.4571 N   0  0  0  0  0  0  0  0  0  0  0  0
    9.7507   44.8510   31.6922 C   0  0  0  0  0  0  0  0  0  0  0  0
    8.7945   45.8417   31.0866 C   0  0  0  0  0  0  0  0  0  0  0  0
    7.4078   45.6007   31.1005 C   0  0  0  0  0  0  0  0  0  0  0  0
    9.2827   46.9892   30.4449 C   0  0  0  0  0  0  0  0  0  0  0  0
    6.5254   46.5002   30.4860 C   0  0  0  0  0  0  0  0  0  0  0  0
    8.4009   47.8883   29.8341 C   0  0  0  0  0  0  0  0  0  0  0  0
    7.0192   47.6550   29.8441 C   0  0  0  0  0  0  0  0  0  0  0  0
    6.1877   48.5961   29.2151 O   0  0  0  0  0  0  0  0  0  0  0  0
    4.7764   48.4769   29.0184 C   0  0  2  0  0  0  0  0  0  0  0  0
    4.4531   47.4455   27.9307 C   0  0  0  0  0  0  0  0  0  0  0  0
    4.1652   49.8218   28.6620 C   0  0  0  0  0  0  0  0  0  0  0  0
    2.8277   50.0543   29.0676 C   0  0  0  0  0  0  0  0  0  0  0  0
    4.8763   50.8644   27.9709 C   0  0  0  0  0  0  0  0  0  0  0  0
    2.2577   51.2936   28.8101 C   0  0  0  0  0  0  0  0  0  0  0  0
    4.2463   52.1114   27.7521 C   0  0  0  0  0  0  0  0  0  0  0  0
    6.2160   50.6841   27.4862 N   0  0  0  0  0  0  0  0  0  0  0  0
    0.9859   51.7352   29.1206 O   0  0  0  0  0  0  0  0  0  0  0  0
    2.9383   52.2800   28.1842 C   0  0  0  0  0  0  0  0  0  0  0  0
    6.5259   49.6063   26.6907 O   0  0  0  0  0  0  0  0  0  0  0  0
    7.0450   51.6114   27.5917 O   0  0  0  0  0  0  0  0  0  0  0  0
    0.8620   53.0871   28.6582 C   0  0  0  0  0  0  0  0  0  0  0  0
    2.1315   53.3954   28.0665 O   0  0  0  0  0  0  0  0  0  0  0  0
    8.8112   40.1834   34.2131 O   0  0  0  0  0  0  0  0  0  0  0  0
   11.2398   40.7938   33.3702 O   0  0  0  0  0  0  0  0  0  0  0  0
   10.9144   40.6912   31.9983 C   0  0  0  0  0  0  0  0  0  0  0  0
   11.5270   39.3911   31.4385 C   0  0  0  0  0  0  0  0  0  0  0  0
   12.7520   39.0911   32.0835 O   0  0  0  0  0  0  0  0  0  0  0  0
   10.6114   38.1931   31.6451 C   0  0  0  0  0  0  0  0  0  0  0  0
   12.9413   37.6837   32.0297 C   0  0  0  0  0  0  0  0  0  0  0  0
    9.6064   38.0877   30.6599 O   0  0  0  0  0  0  0  0  0  0  0  0
   11.5822   37.0197   31.6876 C   0  0  0  0  0  0  0  0  0  0  0  0
   13.4840   37.2104   33.3254 N   0  0  0  0  0  0  0  0  0  0  0  0
   11.6179   36.3071   30.4690 O   0  0  0  0  0  0  0  0  0  0  0  0
   14.4797   36.3309   33.5738 C   0  0  0  0  0  0  0  0  0  0  0  0
   13.1136   37.6269   34.5702 C   0  0  0  0  0  0  0  0  0  0  0  0
   15.2074   35.6152   32.6747 N   0  0  0  0  0  0  0  0  0  0  0  0
   14.6756   36.2298   34.9190 C   0  0  0  0  0  0  0  0  0  0  0  0
   13.8217   37.0445   35.5793 N   0  0  0  0  0  0  0  0  0  0  0  0
   16.1643   34.7603   33.1551 C   0  0  0  0  0  0  0  0  0  0  0  0
   15.6528   35.3503   35.4136 C   0  0  0  0  0  0  0  0  0  0  0  0
   16.3798   34.6316   34.5046 N   0  0  0  0  0  0  0  0  0  0  0  0
   15.9004   35.1931   36.8094 N   0  0  0  0  0  0  0  0  0  0  0  0
    9.0099   45.4350   33.6668 H   0  0  0  0  0  0  0  0  0  0  0  0
   11.1132   46.1993   34.4884 H   0  0  0  0  0  0  0  0  0  0  0  0
   11.9350   45.6933   33.0929 H   0  0  0  0  0  0  0  0  0  0  0  0
    9.3519   43.8344   31.4758 H   0  0  0  0  0  0  0  0  0  0  0  0
   10.7311   44.8930   31.1676 H   0  0  0  0  0  0  0  0  0  0  0  0
    7.0129   44.7158   31.5844 H   0  0  0  0  0  0  0  0  0  0  0  0
   10.3466   47.1898   30.4156 H   0  0  0  0  0  0  0  0  0  0  0  0
    5.4678   46.2835   30.5221 H   0  0  0  0  0  0  0  0  0  0  0  0
    8.7938   48.7709   29.3451 H   0  0  0  0  0  0  0  0  0  0  0  0
    4.3185   48.1409   29.9745 H   0  0  0  0  0  0  0  0  0  0  0  0
    4.8234   47.7778   26.9403 H   0  0  0  0  0  0  0  0  0  0  0  0
    4.9176   46.4667   28.1667 H   0  0  0  0  0  0  0  0  0  0  0  0
    3.3540   47.2982   27.8641 H   0  0  0  0  0  0  0  0  0  0  0  0
    2.2522   49.2936   29.5804 H   0  0  0  0  0  0  0  0  0  0  0  0
    4.7563   52.9173   27.2399 H   0  0  0  0  0  0  0  0  0  0  0  0
    0.6615   53.7681   29.5118 H   0  0  0  0  0  0  0  0  0  0  0  0
    0.0567   53.1606   27.8975 H   0  0  0  0  0  0  0  0  0  0  0  0
   11.3781   41.5548   31.4751 H   0  0  0  0  0  0  0  0  0  0  0  0
    9.8235   40.7202   31.7651 H   0  0  0  0  0  0  0  0  0  0  0  0
   11.7311   39.5363   30.3531 H   0  0  0  0  0  0  0  0  0  0  0  0
   10.1203   38.2696   32.6410 H   0  0  0  0  0  0  0  0  0  0  0  0
   13.6850   37.4638   31.2321 H   0  0  0  0  0  0  0  0  0  0  0  0
   10.0250   38.1791   29.7654 H   0  0  0  0  0  0  0  0  0  0  0  0
   11.2757   36.3135   32.4907 H   0  0  0  0  0  0  0  0  0  0  0  0
   11.9838   36.9110   29.7708 H   0  0  0  0  0  0  0  0  0  0  0  0
   12.3307   38.3536   34.7457 H   0  0  0  0  0  0  0  0  0  0  0  0
   16.7566   34.1787   32.4623 H   0  0  0  0  0  0  0  0  0  0  0  0
   16.6353   34.5301   37.1419 H   0  0  0  0  0  0  0  0  0  0  0  0
   15.3535   35.7355   37.5144 H   0  0  0  0  0  0  0  0  0  0  0  0
  1  2  2  0
  1  3  1  0
  3  4  1  0
  4  5  1  0
  6  1  1  0
  7  6  1  0
  6  8  1  0
  8  9  1  0
  9 10  2  0
 11  9  1  0
 10 12  1  0
 13 11  2  0
 12 14  2  0
 14 13  1  0
 14 15  1  0
 15 16  1  0
 16 17  1  0
 16 18  1  0
 18 19  2  0
 20 18  1  0
 19 21  1  0
 22 20  2  0
 20 23  1  0
 21 24  1  0
 21 25  2  0
 25 22  1  0
 23 26  1  0
 23 27  2  0
 24 28  1  0
 25 29  1  0
 28 29  1  0
  4 30  2  0
  4 31  1  0
 32 31  1  0
 32 33  1  0
 33 34  1  0
 33 35  1  0
 34 36  1  0
 35 37  1  0
 35 38  1  0
 38 36  1  0
 36 39  1  0
 38 40  1  0
 41 39  1  0
 42 39  1  0
 43 41  2  0
 41 44  1  0
 45 42  2  0
 46 43  1  0
 44 47  2  0
 44 45  1  0
 48 46  2  0
 48 47  1  0
 47 49  1  0
  6 50  1  1
  7 51  1  0
  7 52  1  0
  8 53  1  0
  8 54  1  0
 10 55  1  0
 11 56  1  0
 12 57  1  0
 13 58  1  0
 16 59  1  1
 17 60  1  0
 17 61  1  0
 17 62  1  0
 19 63  1  0
 22 64  1  0
 28 65  1  0
 28 66  1  0
 32 67  1  0
 32 68  1  0
 33 69  1  0
 35 70  1  0
 36 71  1  0
 37 72  1  0
 38 73  1  0
 40 74  1  0
 42 75  1  0
 46 76  1  0
 49 77  1  0
 49 78  1  0
M  CHG  3   5  -1  23   1  26  -1
M  END
>  <EmbedRMS>  (320) 
0.0817310054084

$$$$

     RDKit          3D

 78 83  0  0  0  0  0  0  0  0999 V2000
   10.2835   43.7661   33.8256 C   0  0  0  0  0  0  0  0  0  0  0  0
   11.4102   43.5930   34.3753 O   0  0  0  0  0  0  0  0  0  0  0  0
    9.3639   42.7253   33.7347 O   0  0  0  0  0  0  0  0  0  0  0  0
    9.8906   41.2265   34.2938 P   0  0  0  0  0  0  0  0  0  0  0  0
   10.3733   41.4559   35.8835 O   0  0  0  0  0  0  0  0  0  0  0  0
    9.9547   45.0695   33.2036 C   0  0  1  0  0  0  0  0  0  0  0  0
   11.0273   46.0323   33.4760 N   0  0  0  0  0  0  0  0  0  0  0  0
    9.7471   44.8484   31.6876 C   0  0  0  0  0  0  0  0  0  0  0  0
    8.7926   45.8411   31.0847 C   0  0  0  0  0  0  0  0  0  0  0  0
    7.4060   45.6008   31.0989 C   0  0  0  0  0  0  0  0  0  0  0  0
    9.2818   46.9875   30.4415 C   0  0  0  0  0  0  0  0  0  0  0  0
    6.5247   46.5005   30.4839 C   0  0  0  0  0  0  0  0  0  0  0  0
    8.4005   47.8874   29.8314 C   0  0  0  0  0  0  0  0  0  0  0  0
    7.0182   47.6580   29.8481 C   0  0  0  0  0  0  0  0  0  0  0  0
    6.1827   48.5993   29.2242 O   0  0  0  0  0  0  0  0  0  0  0  0
    4.7548   48.5840   29.2420 C   0  0  2  0  0  0  0  0  0  0  0  0
    4.2222   49.5828   28.2142 C   0  0  0  0  0  0  0  0  0  0  0  0
    4.2132   48.8889   30.6313 C   0  0  0  0  0  0  0  0  0  0  0  0
    3.3079   47.9654   31.2096 C   0  0  0  0  0  0  0  0  0  0  0  0
    4.5352   50.0903   31.3485 C   0  0  0  0  0  0  0  0  0  0  0  0
    2.7663   48.2543   32.4553 C   0  0  0  0  0  0  0  0  0  0  0  0
    3.9421   50.3374   32.6064 C   0  0  0  0  0  0  0  0  0  0  0  0
    5.4348   51.0699   30.8164 N   0  0  0  0  0  0  0  0  0  0  0  0
    1.8761   47.5043   33.1996 O   0  0  0  0  0  0  0  0  0  0  0  0
    3.0689   49.3906   33.1236 C   0  0  0  0  0  0  0  0  0  0  0  0
    6.7684   50.7680   30.6765 O   0  0  0  0  0  0  0  0  0  0  0  0
    5.0801   52.2654   30.7643 O   0  0  0  0  0  0  0  0  0  0  0  0
    1.6049   48.2169   34.4143 C   0  0  0  0  0  0  0  0  0  0  0  0
    2.3865   49.4160   34.3246 O   0  0  0  0  0  0  0  0  0  0  0  0
    8.8126   40.1848   34.2122 O   0  0  0  0  0  0  0  0  0  0  0  0
   11.2417   40.7943   33.3694 O   0  0  0  0  0  0  0  0  0  0  0  0
   10.9179   40.6904   31.9970 C   0  0  0  0  0  0  0  0  0  0  0  0
   11.5181   39.3814   31.4408 C   0  0  0  0  0  0  0  0  0  0  0  0
   12.7497   39.0870   32.0745 O   0  0  0  0  0  0  0  0  0  0  0  0
   10.6045   38.1892   31.6655 C   0  0  0  0  0  0  0  0  0  0  0  0
   12.9344   37.6801   32.0290 C   0  0  0  0  0  0  0  0  0  0  0  0
    9.6418   38.0758   30.6441 O   0  0  0  0  0  0  0  0  0  0  0  0
   11.5741   37.0170   31.7045 C   0  0  0  0  0  0  0  0  0  0  0  0
   13.4851   37.2125   33.3241 N   0  0  0  0  0  0  0  0  0  0  0  0
   11.6079   36.3407   30.4680 O   0  0  0  0  0  0  0  0  0  0  0  0
   14.4801   36.3321   33.5727 C   0  0  0  0  0  0  0  0  0  0  0  0
   13.1140   37.6277   34.5693 C   0  0  0  0  0  0  0  0  0  0  0  0
   15.2073   35.6155   32.6739 N   0  0  0  0  0  0  0  0  0  0  0  0
   14.6758   36.2306   34.9182 C   0  0  0  0  0  0  0  0  0  0  0  0
   13.8217   37.0451   35.5785 N   0  0  0  0  0  0  0  0  0  0  0  0
   16.1639   34.7602   33.1546 C   0  0  0  0  0  0  0  0  0  0  0  0
   15.6526   35.3506   35.4130 C   0  0  0  0  0  0  0  0  0  0  0  0
   16.3794   34.6316   34.5041 N   0  0  0  0  0  0  0  0  0  0  0  0
   15.9001   35.1933   36.8089 N   0  0  0  0  0  0  0  0  0  0  0  0
    9.0120   45.4316   33.6713 H   0  0  0  0  0  0  0  0  0  0  0  0
   11.8907   45.7660   32.9476 H   0  0  0  0  0  0  0  0  0  0  0  0
   10.7259   46.9688   33.1216 H   0  0  0  0  0  0  0  0  0  0  0  0
   10.7236   44.8825   31.1559 H   0  0  0  0  0  0  0  0  0  0  0  0
    9.3425   43.8332   31.4758 H   0  0  0  0  0  0  0  0  0  0  0  0
    7.0105   44.7142   31.5792 H   0  0  0  0  0  0  0  0  0  0  0  0
   10.3460   47.1858   30.4094 H   0  0  0  0  0  0  0  0  0  0  0  0
    5.4687   46.2786   30.5056 H   0  0  0  0  0  0  0  0  0  0  0  0
    8.7939   48.7697   29.3427 H   0  0  0  0  0  0  0  0  0  0  0  0
    4.4101   47.5825   28.9006 H   0  0  0  0  0  0  0  0  0  0  0  0
    4.6086   50.6044   28.4044 H   0  0  0  0  0  0  0  0  0  0  0  0
    4.5443   49.2764   27.1963 H   0  0  0  0  0  0  0  0  0  0  0  0
    3.1115   49.6034   28.2388 H   0  0  0  0  0  0  0  0  0  0  0  0
    3.0249   47.0525   30.7012 H   0  0  0  0  0  0  0  0  0  0  0  0
    4.1657   51.2371   33.1654 H   0  0  0  0  0  0  0  0  0  0  0  0
    0.5253   48.4672   34.4799 H   0  0  0  0  0  0  0  0  0  0  0  0
    1.9244   47.6160   35.2915 H   0  0  0  0  0  0  0  0  0  0  0  0
   11.3946   41.5459   31.4723 H   0  0  0  0  0  0  0  0  0  0  0  0
    9.8290   40.7386   31.7617 H   0  0  0  0  0  0  0  0  0  0  0  0
   11.6994   39.5069   30.3484 H   0  0  0  0  0  0  0  0  0  0  0  0
   10.1090   38.2635   32.6632 H   0  0  0  0  0  0  0  0  0  0  0  0
   13.6662   37.4515   31.2224 H   0  0  0  0  0  0  0  0  0  0  0  0
    8.9009   38.6925   30.8793 H   0  0  0  0  0  0  0  0  0  0  0  0
   11.2650   36.3083   32.5087 H   0  0  0  0  0  0  0  0  0  0  0  0
   12.1372   35.5141   30.6163 H   0  0  0  0  0  0  0  0  0  0  0  0
   12.3297   38.3530   34.7450 H   0  0  0  0  0  0  0  0  0  0  0  0
   16.7558   34.1781   32.4619 H   0  0  0  0  0  0  0  0  0  0  0  0
   15.3533   35.7360   37.5138 H   0  0  0  0  0  0  0  0  0  0  0  0
   16.6346   34.5300   37.1414 H   0  0  0  0  0  0  0  0  0  0  0  0
  1  2  2  0
  1  3  1  0
  3  4  1  0
  4  5  1  0
  6  1  1  0
  7  6  1  0
  6  8  1  0
  8  9  1  0
  9 10  2  0
 11  9  1  0
 10 12  1  0
 13 11  2  0
 12 14  2  0
 14 13  1  0
 14 15  1  0
 15 16  1  0
 16 17  1  0
 16 18  1  0
 18 19  2  0
 20 18  1  0
 19 21  1  0
 22 20  2  0
 20 23  1  0
 21 24  1  0
 21 25  2  0
 25 22  1  0
 23 26  1  0
 23 27  2  0
 24 28  1  0
 25 29  1  0
 28 29  1  0
  4 30  2  0
  4 31  1  0
 32 31  1  0
 32 33  1  0
 33 34  1  0
 33 35  1  0
 34 36  1  0
 35 37  1  0
 35 38  1  0
 38 36  1  0
 36 39  1  0
 38 40  1  0
 41 39  1  0
 42 39  1  0
 43 41  2  0
 41 44  1  0
 45 42  2  0
 46 43  1  0
 44 47  2  0
 44 45  1  0
 48 46  2  0
 48 47  1  0
 47 49  1  0
  6 50  1  1
  7 51  1  0
  7 52  1  0
  8 53  1  0
  8 54  1  0
 10 55  1  0
 11 56  1  0
 12 57  1  0
 13 58  1  0
 16 59  1  6
 17 60  1  0
 17 61  1  0
 17 62  1  0
 19 63  1  0
 22 64  1  0
 28 65  1  0
 28 66  1  0
 32 67  1  0
 32 68  1  0
 33 69  1  0
 35 70  1  0
 36 71  1  0
 37 72  1  0
 38 73  1  0
 40 74  1  0
 42 75  1  0
 46 76  1  0
 49 77  1  0
 49 78  1  0
M  CHG  3   5  -1  23   1  26  -1
M  END
>  <EmbedRMS>  (321) 
0.0828173195911

$$$$

     RDKit          3D

 78 83  0  0  0  0  0  0  0  0999 V2000
   10.2835   43.7662   33.8256 C   0  0  0  0  0  0  0  0  0  0  0  0
   11.4102   43.5930   34.3753 O   0  0  0  0  0  0  0  0  0  0  0  0
    9.3638   42.7255   33.7351 O   0  0  0  0  0  0  0  0  0  0  0  0
    9.8903   41.2268   34.2946 P   0  0  0  0  0  0  0  0  0  0  0  0
   10.3728   41.4561   35.8842 O   0  0  0  0  0  0  0  0  0  0  0  0
    9.9548   45.0695   33.2034 C   0  0  1  0  0  0  0  0  0  0  0  0
   11.0273   46.0322   33.4758 N   0  0  0  0  0  0  0  0  0  0  0  0
    9.7472   44.8482   31.6874 C   0  0  0  0  0  0  0  0  0  0  0  0
    8.7927   45.8405   31.0839 C   0  0  0  0  0  0  0  0  0  0  0  0
    7.4061   45.6013   31.0996 C   0  0  0  0  0  0  0  0  0  0  0  0
    9.2817   46.9879   30.4425 C   0  0  0  0  0  0  0  0  0  0  0  0
    6.5241   46.5016   30.4860 C   0  0  0  0  0  0  0  0  0  0  0  0
    8.4004   47.8884   29.8337 C   0  0  0  0  0  0  0  0  0  0  0  0
    7.0185   47.6559   29.8435 C   0  0  0  0  0  0  0  0  0  0  0  0
    6.1876   48.5983   29.2148 O   0  0  0  0  0  0  0  0  0  0  0  0
    4.7841   48.4646   28.9846 C   0  0  2  0  0  0  0  0  0  0  0  0
    4.4958   47.4239   27.8936 C   0  0  0  0  0  0  0  0  0  0  0  0
    4.1931   49.8195   28.6247 C   0  0  0  0  0  0  0  0  0  0  0  0
    3.1889   50.3490   29.4741 C   0  0  0  0  0  0  0  0  0  0  0  0
    4.5709   50.5596   27.4494 C   0  0  0  0  0  0  0  0  0  0  0  0
    2.5912   51.5544   29.1315 C   0  0  0  0  0  0  0  0  0  0  0  0
    3.9137   51.7730   27.1457 C   0  0  0  0  0  0  0  0  0  0  0  0
    5.5893   50.1007   26.5486 N   0  0  0  0  0  0  0  0  0  0  0  0
    1.5994   52.2426   29.8035 O   0  0  0  0  0  0  0  0  0  0  0  0
    2.9359   52.2344   28.0152 C   0  0  0  0  0  0  0  0  0  0  0  0
    5.3946   50.2148   25.1915 O   0  0  0  0  0  0  0  0  0  0  0  0
    6.7348   49.8454   26.9707 O   0  0  0  0  0  0  0  0  0  0  0  0
    1.3044   53.4323   29.0591 C   0  0  0  0  0  0  0  0  0  0  0  0
    2.1803   53.3876   27.9245 O   0  0  0  0  0  0  0  0  0  0  0  0
    8.8125   40.1848   34.2126 O   0  0  0  0  0  0  0  0  0  0  0  0
   11.2416   40.7948   33.3707 O   0  0  0  0  0  0  0  0  0  0  0  0
   10.9179   40.6922   31.9984 C   0  0  0  0  0  0  0  0  0  0  0  0
   11.5175   39.3838   31.4423 C   0  0  0  0  0  0  0  0  0  0  0  0
   12.7508   39.0887   32.0752 O   0  0  0  0  0  0  0  0  0  0  0  0
   10.6028   38.1916   31.6659 C   0  0  0  0  0  0  0  0  0  0  0  0
   12.9384   37.6818   32.0278 C   0  0  0  0  0  0  0  0  0  0  0  0
    9.6371   38.0806   30.6470 O   0  0  0  0  0  0  0  0  0  0  0  0
   11.5780   37.0215   31.6935 C   0  0  0  0  0  0  0  0  0  0  0  0
   13.4844   37.2119   33.3242 N   0  0  0  0  0  0  0  0  0  0  0  0
   11.6095   36.3201   30.4679 O   0  0  0  0  0  0  0  0  0  0  0  0
   14.4797   36.3318   33.5730 C   0  0  0  0  0  0  0  0  0  0  0  0
   13.1135   37.6278   34.5691 C   0  0  0  0  0  0  0  0  0  0  0  0
   15.2073   35.6155   32.6742 N   0  0  0  0  0  0  0  0  0  0  0  0
   14.6754   36.2305   34.9184 C   0  0  0  0  0  0  0  0  0  0  0  0
   13.8213   37.0452   35.5785 N   0  0  0  0  0  0  0  0  0  0  0  0
   16.1640   34.7604   33.1549 C   0  0  0  0  0  0  0  0  0  0  0  0
   15.6524   35.3507   35.4132 C   0  0  0  0  0  0  0  0  0  0  0  0
   16.3794   34.6318   34.5044 N   0  0  0  0  0  0  0  0  0  0  0  0
   15.8999   35.1934   36.8091 N   0  0  0  0  0  0  0  0  0  0  0  0
    9.0120   45.4317   33.6710 H   0  0  0  0  0  0  0  0  0  0  0  0
   11.8908   45.7659   32.9475 H   0  0  0  0  0  0  0  0  0  0  0  0
   10.7260   46.9688   33.1213 H   0  0  0  0  0  0  0  0  0  0  0  0
    9.3427   43.8329   31.4757 H   0  0  0  0  0  0  0  0  0  0  0  0
   10.7237   44.8821   31.1557 H   0  0  0  0  0  0  0  0  0  0  0  0
    7.0104   44.7173   31.5847 H   0  0  0  0  0  0  0  0  0  0  0  0
   10.3459   47.1867   30.4113 H   0  0  0  0  0  0  0  0  0  0  0  0
    5.4665   46.2876   30.5279 H   0  0  0  0  0  0  0  0  0  0  0  0
    8.7941   48.7707   29.3450 H   0  0  0  0  0  0  0  0  0  0  0  0
    4.3040   48.1082   29.9216 H   0  0  0  0  0  0  0  0  0  0  0  0
    5.0781   47.6282   26.9734 H   0  0  0  0  0  0  0  0  0  0  0  0
    3.4131   47.4208   27.6447 H   0  0  0  0  0  0  0  0  0  0  0  0
    4.7680   46.4083   28.2459 H   0  0  0  0  0  0  0  0  0  0  0  0
    2.8698   49.8324   30.3706 H   0  0  0  0  0  0  0  0  0  0  0  0
    4.1718   52.3471   26.2651 H   0  0  0  0  0  0  0  0  0  0  0  0
    0.2453   53.4244   28.7262 H   0  0  0  0  0  0  0  0  0  0  0  0
    1.5181   54.3324   29.6730 H   0  0  0  0  0  0  0  0  0  0  0  0
   11.3952   41.5478   31.4744 H   0  0  0  0  0  0  0  0  0  0  0  0
    9.8291   40.7409   31.7627 H   0  0  0  0  0  0  0  0  0  0  0  0
   11.6981   39.5115   30.3500 H   0  0  0  0  0  0  0  0  0  0  0  0
   10.1117   38.2604   32.6661 H   0  0  0  0  0  0  0  0  0  0  0  0
   13.6767   37.4556   31.2267 H   0  0  0  0  0  0  0  0  0  0  0  0
    8.8961   38.6952   30.8872 H   0  0  0  0  0  0  0  0  0  0  0  0
   11.2791   36.3072   32.4922 H   0  0  0  0  0  0  0  0  0  0  0  0
   11.8828   36.9598   29.7589 H   0  0  0  0  0  0  0  0  0  0  0  0
   12.3300   38.3538   34.7446 H   0  0  0  0  0  0  0  0  0  0  0  0
   16.7562   34.1785   32.4622 H   0  0  0  0  0  0  0  0  0  0  0  0
   15.3531   35.7360   37.5140 H   0  0  0  0  0  0  0  0  0  0  0  0
   16.6347   34.5303   37.1416 H   0  0  0  0  0  0  0  0  0  0  0  0
  1  2  2  0
  1  3  1  0
  3  4  1  0
  4  5  1  0
  6  1  1  0
  7  6  1  0
  6  8  1  0
  8  9  1  0
  9 10  2  0
 11  9  1  0
 10 12  1  0
 13 11  2  0
 12 14  2  0
 14 13  1  0
 14 15  1  0
 15 16  1  0
 16 17  1  0
 16 18  1  0
 18 19  2  0
 20 18  1  0
 19 21  1  0
 22 20  2  0
 20 23  1  0
 21 24  1  0
 21 25  2  0
 25 22  1  0
 23 26  1  0
 23 27  2  0
 24 28  1  0
 25 29  1  0
 28 29  1  0
  4 30  2  0
  4 31  1  0
 32 31  1  0
 32 33  1  0
 33 34  1  0
 33 35  1  0
 34 36  1  0
 35 37  1  0
 35 38  1  0
 38 36  1  0
 36 39  1  0
 38 40  1  0
 41 39  1  0
 42 39  1  0
 43 41  2  0
 41 44  1  0
 45 42  2  0
 46 43  1  0
 44 47  2  0
 44 45  1  0
 48 46  2  0
 48 47  1  0
 47 49  1  0
  6 50  1  1
  7 51  1  0
  7 52  1  0
  8 53  1  0
  8 54  1  0
 10 55  1  0
 11 56  1  0
 12 57  1  0
 13 58  1  0
 16 59  1  1
 17 60  1  0
 17 61  1  0
 17 62  1  0
 19 63  1  0
 22 64  1  0
 28 65  1  0
 28 66  1  0
 32 67  1  0
 32 68  1  0
 33 69  1  0
 35 70  1  0
 36 71  1  0
 37 72  1  0
 38 73  1  0
 40 74  1  0
 42 75  1  0
 46 76  1  0
 49 77  1  0
 49 78  1  0
M  CHG  3   5  -1  23   1  26  -1
M  END
>  <EmbedRMS>  (322) 
0.0819673389547

$$$$

     RDKit          3D

 78 83  0  0  0  0  0  0  0  0999 V2000
   10.2838   43.7627   33.8278 C   0  0  0  0  0  0  0  0  0  0  0  0
   11.4103   43.5863   34.3767 O   0  0  0  0  0  0  0  0  0  0  0  0
    9.3630   42.7236   33.7355 O   0  0  0  0  0  0  0  0  0  0  0  0
    9.8897   41.2248   34.2935 P   0  0  0  0  0  0  0  0  0  0  0  0
   10.3735   41.4542   35.8829 O   0  0  0  0  0  0  0  0  0  0  0  0
    9.9548   45.0699   33.2065 C   0  0  1  0  0  0  0  0  0  0  0  0
   11.0198   46.0481   33.4569 N   0  0  0  0  0  0  0  0  0  0  0  0
    9.7502   44.8507   31.6926 C   0  0  0  0  0  0  0  0  0  0  0  0
    8.7942   45.8414   31.0873 C   0  0  0  0  0  0  0  0  0  0  0  0
    7.4083   45.6007   31.0997 C   0  0  0  0  0  0  0  0  0  0  0  0
    9.2822   46.9880   30.4449 C   0  0  0  0  0  0  0  0  0  0  0  0
    6.5300   46.5020   30.4835 C   0  0  0  0  0  0  0  0  0  0  0  0
    8.4027   47.8888   29.8323 C   0  0  0  0  0  0  0  0  0  0  0  0
    7.0134   47.6547   29.8474 C   0  0  0  0  0  0  0  0  0  0  0  0
    6.0682   48.5164   29.2611 O   0  0  0  0  0  0  0  0  0  0  0  0
    6.2865   49.7745   28.6092 C   0  0  2  0  0  0  0  0  0  0  0  0
    6.9294   49.5614   27.2298 C   0  0  0  0  0  0  0  0  0  0  0  0
    6.9645   50.7959   29.5246 C   0  0  0  0  0  0  0  0  0  0  0  0
    8.2593   51.2995   29.2196 C   0  0  0  0  0  0  0  0  0  0  0  0
    6.2680   51.3342   30.6636 C   0  0  0  0  0  0  0  0  0  0  0  0
    8.8171   52.2609   30.0507 C   0  0  0  0  0  0  0  0  0  0  0  0
    6.8855   52.3228   31.4626 C   0  0  0  0  0  0  0  0  0  0  0  0
    4.9225   50.9465   30.9890 N   0  0  0  0  0  0  0  0  0  0  0  0
   10.0539   52.8686   29.9499 O   0  0  0  0  0  0  0  0  0  0  0  0
    8.1605   52.7494   31.1252 C   0  0  0  0  0  0  0  0  0  0  0  0
    4.0383   51.8904   31.4585 O   0  0  0  0  0  0  0  0  0  0  0  0
    4.6077   49.7423   31.0656 O   0  0  0  0  0  0  0  0  0  0  0  0
   10.1800   53.7976   31.0349 C   0  0  0  0  0  0  0  0  0  0  0  0
    8.9479   53.6905   31.7605 O   0  0  0  0  0  0  0  0  0  0  0  0
    8.8114   40.1834   34.2127 O   0  0  0  0  0  0  0  0  0  0  0  0
   11.2399   40.7937   33.3671 O   0  0  0  0  0  0  0  0  0  0  0  0
   10.9125   40.6857   31.9955 C   0  0  0  0  0  0  0  0  0  0  0  0
   11.5175   39.3786   31.4405 C   0  0  0  0  0  0  0  0  0  0  0  0
   12.7490   39.0863   32.0751 O   0  0  0  0  0  0  0  0  0  0  0  0
   10.6061   38.1867   31.6656 C   0  0  0  0  0  0  0  0  0  0  0  0
   12.9356   37.6796   32.0292 C   0  0  0  0  0  0  0  0  0  0  0  0
    9.6399   38.0902   30.6471 O   0  0  0  0  0  0  0  0  0  0  0  0
   11.5765   37.0145   31.7043 C   0  0  0  0  0  0  0  0  0  0  0  0
   13.4858   37.2125   33.3244 N   0  0  0  0  0  0  0  0  0  0  0  0
   11.6101   36.3396   30.4673 O   0  0  0  0  0  0  0  0  0  0  0  0
   14.4805   36.3319   33.5729 C   0  0  0  0  0  0  0  0  0  0  0  0
   13.1143   37.6276   34.5694 C   0  0  0  0  0  0  0  0  0  0  0  0
   15.2076   35.6153   32.6741 N   0  0  0  0  0  0  0  0  0  0  0  0
   14.6760   36.2304   34.9184 C   0  0  0  0  0  0  0  0  0  0  0  0
   13.8219   37.0449   35.5786 N   0  0  0  0  0  0  0  0  0  0  0  0
   16.1641   34.7600   33.1548 C   0  0  0  0  0  0  0  0  0  0  0  0
   15.6528   35.3505   35.4132 C   0  0  0  0  0  0  0  0  0  0  0  0
   16.3795   34.6314   34.5043 N   0  0  0  0  0  0  0  0  0  0  0  0
   15.9002   35.1931   36.8091 N   0  0  0  0  0  0  0  0  0  0  0  0
    9.0099   45.4349   33.6672 H   0  0  0  0  0  0  0  0  0  0  0  0
   11.1134   46.1994   34.4882 H   0  0  0  0  0  0  0  0  0  0  0  0
   11.9349   45.6933   33.0926 H   0  0  0  0  0  0  0  0  0  0  0  0
    9.3512   43.8341   31.4765 H   0  0  0  0  0  0  0  0  0  0  0  0
   10.7305   44.8923   31.1677 H   0  0  0  0  0  0  0  0  0  0  0  0
    7.0111   44.7158   31.5816 H   0  0  0  0  0  0  0  0  0  0  0  0
   10.3467   47.1862   30.4147 H   0  0  0  0  0  0  0  0  0  0  0  0
    5.4656   46.3045   30.5033 H   0  0  0  0  0  0  0  0  0  0  0  0
    8.8256   48.7498   29.3498 H   0  0  0  0  0  0  0  0  0  0  0  0
    5.2812   50.1918   28.3831 H   0  0  0  0  0  0  0  0  0  0  0  0
    7.9203   49.0724   27.3008 H   0  0  0  0  0  0  0  0  0  0  0  0
    6.2745   48.9073   26.6158 H   0  0  0  0  0  0  0  0  0  0  0  0
    7.0356   50.5328   26.7014 H   0  0  0  0  0  0  0  0  0  0  0  0
    8.8297   50.9612   28.3667 H   0  0  0  0  0  0  0  0  0  0  0  0
    6.3837   52.7446   32.3240 H   0  0  0  0  0  0  0  0  0  0  0  0
   11.0338   53.5146   31.6857 H   0  0  0  0  0  0  0  0  0  0  0  0
   10.3065   54.8292   30.6446 H   0  0  0  0  0  0  0  0  0  0  0  0
    9.8215   40.7200   31.7634 H   0  0  0  0  0  0  0  0  0  0  0  0
   11.3806   41.5436   31.4670 H   0  0  0  0  0  0  0  0  0  0  0  0
   11.6998   39.5042   30.3481 H   0  0  0  0  0  0  0  0  0  0  0  0
   10.1086   38.2765   32.6603 H   0  0  0  0  0  0  0  0  0  0  0  0
   13.6680   37.4519   31.2229 H   0  0  0  0  0  0  0  0  0  0  0  0
    9.0016   37.3867   30.9349 H   0  0  0  0  0  0  0  0  0  0  0  0
   11.2667   36.3061   32.5083 H   0  0  0  0  0  0  0  0  0  0  0  0
   12.1389   35.5126   30.6150 H   0  0  0  0  0  0  0  0  0  0  0  0
   12.3300   38.3529   34.7449 H   0  0  0  0  0  0  0  0  0  0  0  0
   16.7560   34.1779   32.4621 H   0  0  0  0  0  0  0  0  0  0  0  0
   16.6347   34.5298   37.1416 H   0  0  0  0  0  0  0  0  0  0  0  0
   15.3534   35.7359   37.5140 H   0  0  0  0  0  0  0  0  0  0  0  0
  1  2  2  0
  1  3  1  0
  3  4  1  0
  4  5  1  0
  6  1  1  0
  7  6  1  0
  6  8  1  0
  8  9  1  0
  9 10  2  0
 11  9  1  0
 10 12  1  0
 13 11  2  0
 12 14  2  0
 14 13  1  0
 14 15  1  0
 15 16  1  0
 16 17  1  0
 16 18  1  0
 18 19  2  0
 20 18  1  0
 19 21  1  0
 22 20  2  0
 20 23  1  0
 21 24  1  0
 21 25  2  0
 25 22  1  0
 23 26  1  0
 23 27  2  0
 24 28  1  0
 25 29  1  0
 28 29  1  0
  4 30  2  0
  4 31  1  0
 32 31  1  0
 32 33  1  0
 33 34  1  0
 33 35  1  0
 34 36  1  0
 35 37  1  0
 35 38  1  0
 38 36  1  0
 36 39  1  0
 38 40  1  0
 41 39  1  0
 42 39  1  0
 43 41  2  0
 41 44  1  0
 45 42  2  0
 46 43  1  0
 44 47  2  0
 44 45  1  0
 48 46  2  0
 48 47  1  0
 47 49  1  0
  6 50  1  1
  7 51  1  0
  7 52  1  0
  8 53  1  0
  8 54  1  0
 10 55  1  0
 11 56  1  0
 12 57  1  0
 13 58  1  0
 16 59  1  6
 17 60  1  0
 17 61  1  0
 17 62  1  0
 19 63  1  0
 22 64  1  0
 28 65  1  0
 28 66  1  0
 32 67  1  0
 32 68  1  0
 33 69  1  0
 35 70  1  0
 36 71  1  0
 37 72  1  0
 38 73  1  0
 40 74  1  0
 42 75  1  0
 46 76  1  0
 49 77  1  0
 49 78  1  0
M  CHG  3   5  -1  23   1  26  -1
M  END
>  <EmbedRMS>  (323) 
0.0832747370188

$$$$

     RDKit          3D

 78 83  0  0  0  0  0  0  0  0999 V2000
   10.2834   43.7663   33.8257 C   0  0  0  0  0  0  0  0  0  0  0  0
   11.4102   43.5930   34.3752 O   0  0  0  0  0  0  0  0  0  0  0  0
    9.3635   42.7257   33.7353 O   0  0  0  0  0  0  0  0  0  0  0  0
    9.8902   41.2269   34.2942 P   0  0  0  0  0  0  0  0  0  0  0  0
   10.3739   41.4560   35.8835 O   0  0  0  0  0  0  0  0  0  0  0  0
    9.9546   45.0695   33.2035 C   0  0  1  0  0  0  0  0  0  0  0  0
   11.0274   46.0322   33.4756 N   0  0  0  0  0  0  0  0  0  0  0  0
    9.7466   44.8480   31.6876 C   0  0  0  0  0  0  0  0  0  0  0  0
    8.7923   45.8408   31.0844 C   0  0  0  0  0  0  0  0  0  0  0  0
    7.4055   45.6017   31.0993 C   0  0  0  0  0  0  0  0  0  0  0  0
    9.2822   46.9878   30.4425 C   0  0  0  0  0  0  0  0  0  0  0  0
    6.5267   46.5034   30.4841 C   0  0  0  0  0  0  0  0  0  0  0  0
    8.4030   47.8900   29.8323 C   0  0  0  0  0  0  0  0  0  0  0  0
    7.0142   47.6524   29.8465 C   0  0  0  0  0  0  0  0  0  0  0  0
    6.0893   48.5200   29.2428 O   0  0  0  0  0  0  0  0  0  0  0  0
    6.4179   49.7062   28.5134 C   0  0  2  0  0  0  0  0  0  0  0  0
    5.1311   50.4741   28.2212 C   0  0  0  0  0  0  0  0  0  0  0  0
    7.1187   49.3708   27.2070 C   0  0  0  0  0  0  0  0  0  0  0  0
    6.7030   48.2257   26.4828 C   0  0  0  0  0  0  0  0  0  0  0  0
    8.1132   50.2330   26.6398 C   0  0  0  0  0  0  0  0  0  0  0  0
    7.2932   47.9679   25.2524 C   0  0  0  0  0  0  0  0  0  0  0  0
    8.6682   49.9283   25.3768 C   0  0  0  0  0  0  0  0  0  0  0  0
    8.5496   51.4207   27.3141 N   0  0  0  0  0  0  0  0  0  0  0  0
    7.0514   46.9186   24.3868 O   0  0  0  0  0  0  0  0  0  0  0  0
    8.2339   48.7832   24.7226 C   0  0  0  0  0  0  0  0  0  0  0  0
    9.1665   51.3247   28.5394 O   0  0  0  0  0  0  0  0  0  0  0  0
    8.6252   52.4956   26.6842 O   0  0  0  0  0  0  0  0  0  0  0  0
    7.8981   47.0860   23.2414 C   0  0  0  0  0  0  0  0  0  0  0  0
    8.6358   48.2892   23.4965 O   0  0  0  0  0  0  0  0  0  0  0  0
    8.8121   40.1851   34.2131 O   0  0  0  0  0  0  0  0  0  0  0  0
   11.2402   40.7951   33.3682 O   0  0  0  0  0  0  0  0  0  0  0  0
   10.9126   40.6877   31.9968 C   0  0  0  0  0  0  0  0  0  0  0  0
   11.5169   39.3811   31.4420 C   0  0  0  0  0  0  0  0  0  0  0  0
   12.7500   39.0881   32.0759 O   0  0  0  0  0  0  0  0  0  0  0  0
   10.6043   38.1893   31.6659 C   0  0  0  0  0  0  0  0  0  0  0  0
   12.9395   37.6813   32.0280 C   0  0  0  0  0  0  0  0  0  0  0  0
    9.6353   38.0951   30.6499 O   0  0  0  0  0  0  0  0  0  0  0  0
   11.5804   37.0191   31.6934 C   0  0  0  0  0  0  0  0  0  0  0  0
   13.4851   37.2119   33.3244 N   0  0  0  0  0  0  0  0  0  0  0  0
   11.6118   36.3189   30.4673 O   0  0  0  0  0  0  0  0  0  0  0  0
   14.4801   36.3316   33.5732 C   0  0  0  0  0  0  0  0  0  0  0  0
   13.1139   37.6277   34.5692 C   0  0  0  0  0  0  0  0  0  0  0  0
   15.2076   35.6154   32.6744 N   0  0  0  0  0  0  0  0  0  0  0  0
   14.6756   36.2303   34.9186 C   0  0  0  0  0  0  0  0  0  0  0  0
   13.8215   37.0451   35.5786 N   0  0  0  0  0  0  0  0  0  0  0  0
   16.1642   34.7602   33.1551 C   0  0  0  0  0  0  0  0  0  0  0  0
   15.6526   35.3505   35.4134 C   0  0  0  0  0  0  0  0  0  0  0  0
   16.3796   34.6316   34.5045 N   0  0  0  0  0  0  0  0  0  0  0  0
   15.9001   35.1933   36.8093 N   0  0  0  0  0  0  0  0  0  0  0  0
    9.0121   45.4319   33.6714 H   0  0  0  0  0  0  0  0  0  0  0  0
   11.8906   45.7658   32.9469 H   0  0  0  0  0  0  0  0  0  0  0  0
   10.7260   46.9688   33.1212 H   0  0  0  0  0  0  0  0  0  0  0  0
   10.7229   44.8814   31.1556 H   0  0  0  0  0  0  0  0  0  0  0  0
    9.3414   43.8329   31.4763 H   0  0  0  0  0  0  0  0  0  0  0  0
    7.0082   44.7169   31.5813 H   0  0  0  0  0  0  0  0  0  0  0  0
   10.3468   47.1849   30.4116 H   0  0  0  0  0  0  0  0  0  0  0  0
    5.4623   46.3067   30.5010 H   0  0  0  0  0  0  0  0  0  0  0  0
    8.8159   48.7632   29.3500 H   0  0  0  0  0  0  0  0  0  0  0  0
    7.0416   50.3509   29.1626 H   0  0  0  0  0  0  0  0  0  0  0  0
    4.6227   50.7319   29.1745 H   0  0  0  0  0  0  0  0  0  0  0  0
    4.4406   49.8583   27.6056 H   0  0  0  0  0  0  0  0  0  0  0  0
    5.3603   51.4163   27.6783 H   0  0  0  0  0  0  0  0  0  0  0  0
    5.9348   47.5628   26.8599 H   0  0  0  0  0  0  0  0  0  0  0  0
    9.4204   50.5628   24.9257 H   0  0  0  0  0  0  0  0  0  0  0  0
    8.5915   46.2241   23.1471 H   0  0  0  0  0  0  0  0  0  0  0  0
    7.2842   47.2003   22.3235 H   0  0  0  0  0  0  0  0  0  0  0  0
   11.3808   41.5456   31.4686 H   0  0  0  0  0  0  0  0  0  0  0  0
    9.8216   40.7222   31.7646 H   0  0  0  0  0  0  0  0  0  0  0  0
   11.6986   39.5089   30.3499 H   0  0  0  0  0  0  0  0  0  0  0  0
   10.1109   38.2737   32.6630 H   0  0  0  0  0  0  0  0  0  0  0  0
   13.6783   37.4562   31.2271 H   0  0  0  0  0  0  0  0  0  0  0  0
    9.0020   37.3860   30.9348 H   0  0  0  0  0  0  0  0  0  0  0  0
   11.2807   36.3053   32.4921 H   0  0  0  0  0  0  0  0  0  0  0  0
   11.8818   36.9599   29.7584 H   0  0  0  0  0  0  0  0  0  0  0  0
   12.3303   38.3538   34.7445 H   0  0  0  0  0  0  0  0  0  0  0  0
   16.7564   34.1783   32.4624 H   0  0  0  0  0  0  0  0  0  0  0  0
   15.3532   35.7359   37.5142 H   0  0  0  0  0  0  0  0  0  0  0  0
   16.6348   34.5301   37.1418 H   0  0  0  0  0  0  0  0  0  0  0  0
  1  2  2  0
  1  3  1  0
  3  4  1  0
  4  5  1  0
  6  1  1  0
  7  6  1  0
  6  8  1  0
  8  9  1  0
  9 10  2  0
 11  9  1  0
 10 12  1  0
 13 11  2  0
 12 14  2  0
 14 13  1  0
 14 15  1  0
 15 16  1  0
 16 17  1  0
 16 18  1  0
 18 19  2  0
 20 18  1  0
 19 21  1  0
 22 20  2  0
 20 23  1  0
 21 24  1  0
 21 25  2  0
 25 22  1  0
 23 26  1  0
 23 27  2  0
 24 28  1  0
 25 29  1  0
 28 29  1  0
  4 30  2  0
  4 31  1  0
 32 31  1  0
 32 33  1  0
 33 34  1  0
 33 35  1  0
 34 36  1  0
 35 37  1  0
 35 38  1  0
 38 36  1  0
 36 39  1  0
 38 40  1  0
 41 39  1  0
 42 39  1  0
 43 41  2  0
 41 44  1  0
 45 42  2  0
 46 43  1  0
 44 47  2  0
 44 45  1  0
 48 46  2  0
 48 47  1  0
 47 49  1  0
  6 50  1  1
  7 51  1  0
  7 52  1  0
  8 53  1  0
  8 54  1  0
 10 55  1  0
 11 56  1  0
 12 57  1  0
 13 58  1  0
 16 59  1  1
 17 60  1  0
 17 61  1  0
 17 62  1  0
 19 63  1  0
 22 64  1  0
 28 65  1  0
 28 66  1  0
 32 67  1  0
 32 68  1  0
 33 69  1  0
 35 70  1  0
 36 71  1  0
 37 72  1  0
 38 73  1  0
 40 74  1  0
 42 75  1  0
 46 76  1  0
 49 77  1  0
 49 78  1  0
M  CHG  3   5  -1  23   1  26  -1
M  END
>  <EmbedRMS>  (324) 
0.0815726308558

$$$$

     RDKit          3D

 78 83  0  0  0  0  0  0  0  0999 V2000
   10.2839   43.7626   33.8271 C   0  0  0  0  0  0  0  0  0  0  0  0
   11.4103   43.5865   34.3765 O   0  0  0  0  0  0  0  0  0  0  0  0
    9.3633   42.7234   33.7349 O   0  0  0  0  0  0  0  0  0  0  0  0
    9.8899   41.2247   34.2940 P   0  0  0  0  0  0  0  0  0  0  0  0
   10.3723   41.4546   35.8836 O   0  0  0  0  0  0  0  0  0  0  0  0
    9.9547   45.0699   33.2059 C   0  0  1  0  0  0  0  0  0  0  0  0
   11.0197   46.0481   33.4564 N   0  0  0  0  0  0  0  0  0  0  0  0
    9.7498   44.8511   31.6917 C   0  0  0  0  0  0  0  0  0  0  0  0
    8.7939   45.8420   31.0863 C   0  0  0  0  0  0  0  0  0  0  0  0
    7.4056   45.6015   31.1014 C   0  0  0  0  0  0  0  0  0  0  0  0
    9.2835   46.9912   30.4454 C   0  0  0  0  0  0  0  0  0  0  0  0
    6.5253   46.5033   30.4870 C   0  0  0  0  0  0  0  0  0  0  0  0
    8.4019   47.8914   29.8352 C   0  0  0  0  0  0  0  0  0  0  0  0
    7.0217   47.6451   29.8436 C   0  0  0  0  0  0  0  0  0  0  0  0
    6.1432   48.5503   29.2430 O   0  0  0  0  0  0  0  0  0  0  0  0
    5.7870   48.5199   27.8572 C   0  0  2  0  0  0  0  0  0  0  0  0
    4.8133   47.3757   27.5552 C   0  0  0  0  0  0  0  0  0  0  0  0
    7.0177   48.5941   26.9541 C   0  0  0  0  0  0  0  0  0  0  0  0
    7.4644   49.8874   26.5829 C   0  0  0  0  0  0  0  0  0  0  0  0
    7.7915   47.4543   26.5423 C   0  0  0  0  0  0  0  0  0  0  0  0
    8.6245   50.0053   25.8287 C   0  0  0  0  0  0  0  0  0  0  0  0
    8.9643   47.6350   25.7789 C   0  0  0  0  0  0  0  0  0  0  0  0
    7.4070   46.1178   26.8663 N   0  0  0  0  0  0  0  0  0  0  0  0
    9.2333   51.1551   25.3636 O   0  0  0  0  0  0  0  0  0  0  0  0
    9.3432   48.9267   25.4443 C   0  0  0  0  0  0  0  0  0  0  0  0
    6.6214   45.4230   25.9768 O   0  0  0  0  0  0  0  0  0  0  0  0
    8.0735   45.4785   27.7050 O   0  0  0  0  0  0  0  0  0  0  0  0
   10.4094   50.7706   24.6385 C   0  0  0  0  0  0  0  0  0  0  0  0
   10.4417   49.3389   24.7147 O   0  0  0  0  0  0  0  0  0  0  0  0
    8.8119   40.1831   34.2121 O   0  0  0  0  0  0  0  0  0  0  0  0
   11.2415   40.7932   33.3699 O   0  0  0  0  0  0  0  0  0  0  0  0
   10.9186   40.6909   31.9972 C   0  0  0  0  0  0  0  0  0  0  0  0
   11.5172   39.3814   31.4407 C   0  0  0  0  0  0  0  0  0  0  0  0
   12.7493   39.0855   32.0727 O   0  0  0  0  0  0  0  0  0  0  0  0
   10.6023   38.1907   31.6664 C   0  0  0  0  0  0  0  0  0  0  0  0
   12.9319   37.6781   32.0281 C   0  0  0  0  0  0  0  0  0  0  0  0
    9.6392   38.0797   30.6451 O   0  0  0  0  0  0  0  0  0  0  0  0
   11.5715   37.0165   31.7056 C   0  0  0  0  0  0  0  0  0  0  0  0
   13.4846   37.2121   33.3235 N   0  0  0  0  0  0  0  0  0  0  0  0
   11.6187   36.3383   30.4694 O   0  0  0  0  0  0  0  0  0  0  0  0
   14.4801   36.3321   33.5724 C   0  0  0  0  0  0  0  0  0  0  0  0
   13.1137   37.6275   34.5687 C   0  0  0  0  0  0  0  0  0  0  0  0
   15.2073   35.6153   32.6738 N   0  0  0  0  0  0  0  0  0  0  0  0
   14.6759   36.2308   34.9179 C   0  0  0  0  0  0  0  0  0  0  0  0
   13.8216   37.0452   35.5780 N   0  0  0  0  0  0  0  0  0  0  0  0
   16.1640   34.7602   33.1546 C   0  0  0  0  0  0  0  0  0  0  0  0
   15.6526   35.3508   35.4129 C   0  0  0  0  0  0  0  0  0  0  0  0
   16.3794   34.6317   34.5041 N   0  0  0  0  0  0  0  0  0  0  0  0
   15.8999   35.1935   36.8088 N   0  0  0  0  0  0  0  0  0  0  0  0
    9.0098   45.4348   33.6666 H   0  0  0  0  0  0  0  0  0  0  0  0
   11.1134   46.1991   34.4877 H   0  0  0  0  0  0  0  0  0  0  0  0
   11.9346   45.6933   33.0918 H   0  0  0  0  0  0  0  0  0  0  0  0
   10.7300   44.8928   31.1665 H   0  0  0  0  0  0  0  0  0  0  0  0
    9.3505   43.8347   31.4754 H   0  0  0  0  0  0  0  0  0  0  0  0
    7.0091   44.7178   31.5859 H   0  0  0  0  0  0  0  0  0  0  0  0
   10.3474   47.1921   30.4174 H   0  0  0  0  0  0  0  0  0  0  0  0
    5.4599   46.3136   30.5101 H   0  0  0  0  0  0  0  0  0  0  0  0
    8.7914   48.7774   29.3503 H   0  0  0  0  0  0  0  0  0  0  0  0
    5.1906   49.4414   27.6749 H   0  0  0  0  0  0  0  0  0  0  0  0
    3.8353   47.5866   28.0381 H   0  0  0  0  0  0  0  0  0  0  0  0
    5.1735   46.4114   27.9630 H   0  0  0  0  0  0  0  0  0  0  0  0
    4.6468   47.2876   26.4606 H   0  0  0  0  0  0  0  0  0  0  0  0
    6.9321   50.7800   26.8869 H   0  0  0  0  0  0  0  0  0  0  0  0
    9.5583   46.7892   25.4568 H   0  0  0  0  0  0  0  0  0  0  0  0
   11.3138   51.2003   25.1179 H   0  0  0  0  0  0  0  0  0  0  0  0
   10.3316   51.0962   23.5800 H   0  0  0  0  0  0  0  0  0  0  0  0
    9.8300   40.7410   31.7610 H   0  0  0  0  0  0  0  0  0  0  0  0
   11.3971   41.5460   31.4734 H   0  0  0  0  0  0  0  0  0  0  0  0
   11.6974   39.5067   30.3480 H   0  0  0  0  0  0  0  0  0  0  0  0
   10.1076   38.2647   32.6645 H   0  0  0  0  0  0  0  0  0  0  0  0
   13.6621   37.4467   31.2208 H   0  0  0  0  0  0  0  0  0  0  0  0
    8.8975   38.6945   30.8830 H   0  0  0  0  0  0  0  0  0  0  0  0
   11.2806   36.3073   32.5170 H   0  0  0  0  0  0  0  0  0  0  0  0
   10.8492   35.7110   30.4585 H   0  0  0  0  0  0  0  0  0  0  0  0
   12.3290   38.3524   34.7444 H   0  0  0  0  0  0  0  0  0  0  0  0
   16.7559   34.1780   32.4619 H   0  0  0  0  0  0  0  0  0  0  0  0
   15.3532   35.7362   37.5137 H   0  0  0  0  0  0  0  0  0  0  0  0
   16.6344   34.5301   37.1414 H   0  0  0  0  0  0  0  0  0  0  0  0
  1  2  2  0
  1  3  1  0
  3  4  1  0
  4  5  1  0
  6  1  1  0
  7  6  1  0
  6  8  1  0
  8  9  1  0
  9 10  2  0
 11  9  1  0
 10 12  1  0
 13 11  2  0
 12 14  2  0
 14 13  1  0
 14 15  1  0
 15 16  1  0
 16 17  1  0
 16 18  1  0
 18 19  2  0
 20 18  1  0
 19 21  1  0
 22 20  2  0
 20 23  1  0
 21 24  1  0
 21 25  2  0
 25 22  1  0
 23 26  1  0
 23 27  2  0
 24 28  1  0
 25 29  1  0
 28 29  1  0
  4 30  2  0
  4 31  1  0
 32 31  1  0
 32 33  1  0
 33 34  1  0
 33 35  1  0
 34 36  1  0
 35 37  1  0
 35 38  1  0
 38 36  1  0
 36 39  1  0
 38 40  1  0
 41 39  1  0
 42 39  1  0
 43 41  2  0
 41 44  1  0
 45 42  2  0
 46 43  1  0
 44 47  2  0
 44 45  1  0
 48 46  2  0
 48 47  1  0
 47 49  1  0
  6 50  1  1
  7 51  1  0
  7 52  1  0
  8 53  1  0
  8 54  1  0
 10 55  1  0
 11 56  1  0
 12 57  1  0
 13 58  1  0
 16 59  1  6
 17 60  1  0
 17 61  1  0
 17 62  1  0
 19 63  1  0
 22 64  1  0
 28 65  1  0
 28 66  1  0
 32 67  1  0
 32 68  1  0
 33 69  1  0
 35 70  1  0
 36 71  1  0
 37 72  1  0
 38 73  1  0
 40 74  1  0
 42 75  1  0
 46 76  1  0
 49 77  1  0
 49 78  1  0
M  CHG  3   5  -1  23   1  26  -1
M  END
>  <EmbedRMS>  (325) 
0.0839523231519

$$$$

     RDKit          3D

 78 83  0  0  0  0  0  0  0  0999 V2000
   10.2839   43.7627   33.8277 C   0  0  0  0  0  0  0  0  0  0  0  0
   11.4104   43.5863   34.3767 O   0  0  0  0  0  0  0  0  0  0  0  0
    9.3631   42.7236   33.7356 O   0  0  0  0  0  0  0  0  0  0  0  0
    9.8895   41.2250   34.2948 P   0  0  0  0  0  0  0  0  0  0  0  0
   10.3720   41.4547   35.8844 O   0  0  0  0  0  0  0  0  0  0  0  0
    9.9548   45.0701   33.2066 C   0  0  1  0  0  0  0  0  0  0  0  0
   11.0197   46.0482   33.4573 N   0  0  0  0  0  0  0  0  0  0  0  0
    9.7505   44.8512   31.6925 C   0  0  0  0  0  0  0  0  0  0  0  0
    8.7944   45.8421   31.0873 C   0  0  0  0  0  0  0  0  0  0  0  0
    7.4078   45.6003   31.0998 C   0  0  0  0  0  0  0  0  0  0  0  0
    9.2827   46.9888   30.4439 C   0  0  0  0  0  0  0  0  0  0  0  0
    6.5260   46.4992   30.4839 C   0  0  0  0  0  0  0  0  0  0  0  0
    8.4009   47.8873   29.8320 C   0  0  0  0  0  0  0  0  0  0  0  0
    7.0188   47.6570   29.8484 C   0  0  0  0  0  0  0  0  0  0  0  0
    6.1832   48.5973   29.2236 O   0  0  0  0  0  0  0  0  0  0  0  0
    4.7557   48.6015   29.2681 C   0  0  2  0  0  0  0  0  0  0  0  0
    4.2158   49.6039   28.2474 C   0  0  0  0  0  0  0  0  0  0  0  0
    4.2419   48.9133   30.6675 C   0  0  0  0  0  0  0  0  0  0  0  0
    3.3553   47.9848   31.2673 C   0  0  0  0  0  0  0  0  0  0  0  0
    4.5651   50.1233   31.3742 C   0  0  0  0  0  0  0  0  0  0  0  0
    2.8319   48.2751   32.5201 C   0  0  0  0  0  0  0  0  0  0  0  0
    3.9877   50.3707   32.6393 C   0  0  0  0  0  0  0  0  0  0  0  0
    5.4396   51.1182   30.8253 N   0  0  0  0  0  0  0  0  0  0  0  0
    1.9619   47.5204   33.2832 O   0  0  0  0  0  0  0  0  0  0  0  0
    3.1336   49.4180   33.1764 C   0  0  0  0  0  0  0  0  0  0  0  0
    5.0813   52.4445   30.8965 O   0  0  0  0  0  0  0  0  0  0  0  0
    6.6206   50.8301   30.5470 O   0  0  0  0  0  0  0  0  0  0  0  0
    1.7033   48.2372   34.4981 C   0  0  0  0  0  0  0  0  0  0  0  0
    2.4707   49.4437   34.3884 O   0  0  0  0  0  0  0  0  0  0  0  0
    8.8117   40.1832   34.2125 O   0  0  0  0  0  0  0  0  0  0  0  0
   11.2411   40.7938   33.3709 O   0  0  0  0  0  0  0  0  0  0  0  0
   10.9179   40.6919   31.9985 C   0  0  0  0  0  0  0  0  0  0  0  0
   11.5175   39.3837   31.4422 C   0  0  0  0  0  0  0  0  0  0  0  0
   12.7508   39.0887   32.0751 O   0  0  0  0  0  0  0  0  0  0  0  0
   10.6028   38.1915   31.6658 C   0  0  0  0  0  0  0  0  0  0  0  0
   12.9385   37.6818   32.0277 C   0  0  0  0  0  0  0  0  0  0  0  0
    9.6371   38.0805   30.6470 O   0  0  0  0  0  0  0  0  0  0  0  0
   11.5780   37.0215   31.6934 C   0  0  0  0  0  0  0  0  0  0  0  0
   13.4844   37.2119   33.3241 N   0  0  0  0  0  0  0  0  0  0  0  0
   11.6095   36.3201   30.4678 O   0  0  0  0  0  0  0  0  0  0  0  0
   14.4797   36.3318   33.5730 C   0  0  0  0  0  0  0  0  0  0  0  0
   13.1136   37.6278   34.5691 C   0  0  0  0  0  0  0  0  0  0  0  0
   15.2073   35.6155   32.6742 N   0  0  0  0  0  0  0  0  0  0  0  0
   14.6754   36.2305   34.9184 C   0  0  0  0  0  0  0  0  0  0  0  0
   13.8213   37.0452   35.5785 N   0  0  0  0  0  0  0  0  0  0  0  0
   16.1640   34.7603   33.1549 C   0  0  0  0  0  0  0  0  0  0  0  0
   15.6524   35.3507   35.4133 C   0  0  0  0  0  0  0  0  0  0  0  0
   16.3794   34.6318   34.5044 N   0  0  0  0  0  0  0  0  0  0  0  0
   15.8999   35.1935   36.8091 N   0  0  0  0  0  0  0  0  0  0  0  0
    9.0098   45.4349   33.6672 H   0  0  0  0  0  0  0  0  0  0  0  0
   11.1132   46.1993   34.4886 H   0  0  0  0  0  0  0  0  0  0  0  0
   11.9349   45.6935   33.0931 H   0  0  0  0  0  0  0  0  0  0  0  0
   10.7309   44.8932   31.1679 H   0  0  0  0  0  0  0  0  0  0  0  0
    9.3518   43.8346   31.4761 H   0  0  0  0  0  0  0  0  0  0  0  0
    7.0129   44.7131   31.5794 H   0  0  0  0  0  0  0  0  0  0  0  0
   10.3467   47.1889   30.4138 H   0  0  0  0  0  0  0  0  0  0  0  0
    5.4705   46.2754   30.5029 H   0  0  0  0  0  0  0  0  0  0  0  0
    8.7937   48.7700   29.3434 H   0  0  0  0  0  0  0  0  0  0  0  0
    4.3933   47.6039   28.9338 H   0  0  0  0  0  0  0  0  0  0  0  0
    4.5148   49.2906   27.2245 H   0  0  0  0  0  0  0  0  0  0  0  0
    3.1062   49.6380   28.2930 H   0  0  0  0  0  0  0  0  0  0  0  0
    4.6177   50.6216   28.4262 H   0  0  0  0  0  0  0  0  0  0  0  0
    3.0709   47.0666   30.7693 H   0  0  0  0  0  0  0  0  0  0  0  0
    4.2096   51.2754   33.1907 H   0  0  0  0  0  0  0  0  0  0  0  0
    2.0435   47.6449   35.3733 H   0  0  0  0  0  0  0  0  0  0  0  0
    0.6224   48.4767   34.5801 H   0  0  0  0  0  0  0  0  0  0  0  0
    9.8292   40.7410   31.7624 H   0  0  0  0  0  0  0  0  0  0  0  0
   11.3955   41.5477   31.4751 H   0  0  0  0  0  0  0  0  0  0  0  0
   11.6981   39.5115   30.3500 H   0  0  0  0  0  0  0  0  0  0  0  0
   10.1117   38.2603   32.6660 H   0  0  0  0  0  0  0  0  0  0  0  0
   13.6768   37.4556   31.2267 H   0  0  0  0  0  0  0  0  0  0  0  0
    8.8962   38.6951   30.8871 H   0  0  0  0  0  0  0  0  0  0  0  0
   11.2792   36.3071   32.4922 H   0  0  0  0  0  0  0  0  0  0  0  0
   11.8828   36.9598   29.7588 H   0  0  0  0  0  0  0  0  0  0  0  0
   12.3300   38.3539   34.7446 H   0  0  0  0  0  0  0  0  0  0  0  0
   16.7562   34.1785   32.4622 H   0  0  0  0  0  0  0  0  0  0  0  0
   16.6346   34.5303   37.1417 H   0  0  0  0  0  0  0  0  0  0  0  0
   15.3530   35.7361   37.5140 H   0  0  0  0  0  0  0  0  0  0  0  0
  1  2  2  0
  1  3  1  0
  3  4  1  0
  4  5  1  0
  6  1  1  0
  7  6  1  0
  6  8  1  0
  8  9  1  0
  9 10  2  0
 11  9  1  0
 10 12  1  0
 13 11  2  0
 12 14  2  0
 14 13  1  0
 14 15  1  0
 15 16  1  0
 16 17  1  0
 16 18  1  0
 18 19  2  0
 20 18  1  0
 19 21  1  0
 22 20  2  0
 20 23  1  0
 21 24  1  0
 21 25  2  0
 25 22  1  0
 23 26  1  0
 23 27  2  0
 24 28  1  0
 25 29  1  0
 28 29  1  0
  4 30  2  0
  4 31  1  0
 32 31  1  0
 32 33  1  0
 33 34  1  0
 33 35  1  0
 34 36  1  0
 35 37  1  0
 35 38  1  0
 38 36  1  0
 36 39  1  0
 38 40  1  0
 41 39  1  0
 42 39  1  0
 43 41  2  0
 41 44  1  0
 45 42  2  0
 46 43  1  0
 44 47  2  0
 44 45  1  0
 48 46  2  0
 48 47  1  0
 47 49  1  0
  6 50  1  1
  7 51  1  0
  7 52  1  0
  8 53  1  0
  8 54  1  0
 10 55  1  0
 11 56  1  0
 12 57  1  0
 13 58  1  0
 16 59  1  6
 17 60  1  0
 17 61  1  0
 17 62  1  0
 19 63  1  0
 22 64  1  0
 28 65  1  0
 28 66  1  0
 32 67  1  0
 32 68  1  0
 33 69  1  0
 35 70  1  0
 36 71  1  0
 37 72  1  0
 38 73  1  0
 40 74  1  0
 42 75  1  0
 46 76  1  0
 49 77  1  0
 49 78  1  0
M  CHG  3   5  -1  23   1  26  -1
M  END
>  <EmbedRMS>  (326) 
0.082863338045

$$$$

     RDKit          3D

 78 83  0  0  0  0  0  0  0  0999 V2000
   10.2835   43.7661   33.8256 C   0  0  0  0  0  0  0  0  0  0  0  0
   11.4102   43.5931   34.3753 O   0  0  0  0  0  0  0  0  0  0  0  0
    9.3640   42.7252   33.7347 O   0  0  0  0  0  0  0  0  0  0  0  0
    9.8908   41.2264   34.2939 P   0  0  0  0  0  0  0  0  0  0  0  0
   10.3732   41.4559   35.8835 O   0  0  0  0  0  0  0  0  0  0  0  0
    9.9546   45.0694   33.2034 C   0  0  1  0  0  0  0  0  0  0  0  0
   11.0273   46.0321   33.4755 N   0  0  0  0  0  0  0  0  0  0  0  0
    9.7465   44.8479   31.6875 C   0  0  0  0  0  0  0  0  0  0  0  0
    8.7923   45.8406   31.0842 C   0  0  0  0  0  0  0  0  0  0  0  0
    7.4055   45.6018   31.0995 C   0  0  0  0  0  0  0  0  0  0  0  0
    9.2823   46.9878   30.4426 C   0  0  0  0  0  0  0  0  0  0  0  0
    6.5266   46.5037   30.4846 C   0  0  0  0  0  0  0  0  0  0  0  0
    8.4034   47.8903   29.8326 C   0  0  0  0  0  0  0  0  0  0  0  0
    7.0141   47.6520   29.8458 C   0  0  0  0  0  0  0  0  0  0  0  0
    6.0892   48.5193   29.2414 O   0  0  0  0  0  0  0  0  0  0  0  0
    6.4233   49.6800   28.4752 C   0  0  2  0  0  0  0  0  0  0  0  0
    5.1445   50.4657   28.1910 C   0  0  0  0  0  0  0  0  0  0  0  0
    7.0907   49.2838   27.1687 C   0  0  0  0  0  0  0  0  0  0  0  0
    6.5518   48.1973   26.4366 C   0  0  0  0  0  0  0  0  0  0  0  0
    8.2734   49.9370   26.6856 C   0  0  0  0  0  0  0  0  0  0  0  0
    7.2142   47.7750   25.2919 C   0  0  0  0  0  0  0  0  0  0  0  0
    8.9134   49.4513   25.5230 C   0  0  0  0  0  0  0  0  0  0  0  0
    8.8258   51.0876   27.3437 N   0  0  0  0  0  0  0  0  0  0  0  0
    6.8817   46.7396   24.4397 O   0  0  0  0  0  0  0  0  0  0  0  0
    8.3479   48.3717   24.8575 C   0  0  0  0  0  0  0  0  0  0  0  0
   10.1896   51.2651   27.3791 O   0  0  0  0  0  0  0  0  0  0  0  0
    8.0867   52.0378   27.6736 O   0  0  0  0  0  0  0  0  0  0  0  0
    7.8713   46.6848   23.4032 C   0  0  0  0  0  0  0  0  0  0  0  0
    8.7884   47.7445   23.7080 O   0  0  0  0  0  0  0  0  0  0  0  0
    8.8127   40.1847   34.2121 O   0  0  0  0  0  0  0  0  0  0  0  0
   11.2421   40.7941   33.3697 O   0  0  0  0  0  0  0  0  0  0  0  0
   10.9187   40.6911   31.9971 C   0  0  0  0  0  0  0  0  0  0  0  0
   11.5172   39.3815   31.4407 C   0  0  0  0  0  0  0  0  0  0  0  0
   12.7492   39.0855   32.0728 O   0  0  0  0  0  0  0  0  0  0  0  0
   10.6023   38.1908   31.6665 C   0  0  0  0  0  0  0  0  0  0  0  0
   12.9319   37.6781   32.0281 C   0  0  0  0  0  0  0  0  0  0  0  0
    9.6392   38.0798   30.6452 O   0  0  0  0  0  0  0  0  0  0  0  0
   11.5715   37.0165   31.7056 C   0  0  0  0  0  0  0  0  0  0  0  0
   13.4846   37.2121   33.3235 N   0  0  0  0  0  0  0  0  0  0  0  0
   11.6187   36.3383   30.4695 O   0  0  0  0  0  0  0  0  0  0  0  0
   14.4801   36.3321   33.5724 C   0  0  0  0  0  0  0  0  0  0  0  0
   13.1137   37.6275   34.5688 C   0  0  0  0  0  0  0  0  0  0  0  0
   15.2073   35.6153   32.6738 N   0  0  0  0  0  0  0  0  0  0  0  0
   14.6759   36.2308   34.9179 C   0  0  0  0  0  0  0  0  0  0  0  0
   13.8216   37.0452   35.5781 N   0  0  0  0  0  0  0  0  0  0  0  0
   16.1640   34.7602   33.1546 C   0  0  0  0  0  0  0  0  0  0  0  0
   15.6526   35.3508   35.4129 C   0  0  0  0  0  0  0  0  0  0  0  0
   16.3794   34.6317   34.5041 N   0  0  0  0  0  0  0  0  0  0  0  0
   15.9000   35.1935   36.8088 N   0  0  0  0  0  0  0  0  0  0  0  0
    9.0120   45.4316   33.6713 H   0  0  0  0  0  0  0  0  0  0  0  0
   10.7257   46.9687   33.1212 H   0  0  0  0  0  0  0  0  0  0  0  0
   11.8905   45.7658   32.9467 H   0  0  0  0  0  0  0  0  0  0  0  0
   10.7229   44.8811   31.1555 H   0  0  0  0  0  0  0  0  0  0  0  0
    9.3412   43.8328   31.4762 H   0  0  0  0  0  0  0  0  0  0  0  0
    7.0082   44.7172   31.5818 H   0  0  0  0  0  0  0  0  0  0  0  0
   10.3468   47.1855   30.4130 H   0  0  0  0  0  0  0  0  0  0  0  0
    5.4621   46.3070   30.5016 H   0  0  0  0  0  0  0  0  0  0  0  0
    8.8173   48.7665   29.3549 H   0  0  0  0  0  0  0  0  0  0  0  0
    7.0802   50.3239   29.0953 H   0  0  0  0  0  0  0  0  0  0  0  0
    5.3736   51.3755   27.5963 H   0  0  0  0  0  0  0  0  0  0  0  0
    4.4171   49.8405   27.6302 H   0  0  0  0  0  0  0  0  0  0  0  0
    4.6769   50.7793   29.1484 H   0  0  0  0  0  0  0  0  0  0  0  0
    5.6569   47.6829   26.7635 H   0  0  0  0  0  0  0  0  0  0  0  0
    9.8103   49.9179   25.1364 H   0  0  0  0  0  0  0  0  0  0  0  0
    7.4004   46.8586   22.4129 H   0  0  0  0  0  0  0  0  0  0  0  0
    8.3956   45.7065   23.4241 H   0  0  0  0  0  0  0  0  0  0  0  0
    9.8300   40.7410   31.7614 H   0  0  0  0  0  0  0  0  0  0  0  0
   11.3968   41.5460   31.4729 H   0  0  0  0  0  0  0  0  0  0  0  0
   11.6975   39.5066   30.3481 H   0  0  0  0  0  0  0  0  0  0  0  0
   10.1076   38.2648   32.6645 H   0  0  0  0  0  0  0  0  0  0  0  0
   13.6621   37.4468   31.2209 H   0  0  0  0  0  0  0  0  0  0  0  0
    8.8975   38.6945   30.8831 H   0  0  0  0  0  0  0  0  0  0  0  0
   11.2805   36.3073   32.5170 H   0  0  0  0  0  0  0  0  0  0  0  0
   10.8492   35.7110   30.4585 H   0  0  0  0  0  0  0  0  0  0  0  0
   12.3290   38.3524   34.7444 H   0  0  0  0  0  0  0  0  0  0  0  0
   16.7560   34.1780   32.4619 H   0  0  0  0  0  0  0  0  0  0  0  0
   16.6345   34.5301   37.1414 H   0  0  0  0  0  0  0  0  0  0  0  0
   15.3532   35.7363   37.5137 H   0  0  0  0  0  0  0  0  0  0  0  0
  1  2  2  0
  1  3  1  0
  3  4  1  0
  4  5  1  0
  6  1  1  0
  7  6  1  0
  6  8  1  0
  8  9  1  0
  9 10  2  0
 11  9  1  0
 10 12  1  0
 13 11  2  0
 12 14  2  0
 14 13  1  0
 14 15  1  0
 15 16  1  0
 16 17  1  0
 16 18  1  0
 18 19  2  0
 20 18  1  0
 19 21  1  0
 22 20  2  0
 20 23  1  0
 21 24  1  0
 21 25  2  0
 25 22  1  0
 23 26  1  0
 23 27  2  0
 24 28  1  0
 25 29  1  0
 28 29  1  0
  4 30  2  0
  4 31  1  0
 32 31  1  0
 32 33  1  0
 33 34  1  0
 33 35  1  0
 34 36  1  0
 35 37  1  0
 35 38  1  0
 38 36  1  0
 36 39  1  0
 38 40  1  0
 41 39  1  0
 42 39  1  0
 43 41  2  0
 41 44  1  0
 45 42  2  0
 46 43  1  0
 44 47  2  0
 44 45  1  0
 48 46  2  0
 48 47  1  0
 47 49  1  0
  6 50  1  1
  7 51  1  0
  7 52  1  0
  8 53  1  0
  8 54  1  0
 10 55  1  0
 11 56  1  0
 12 57  1  0
 13 58  1  0
 16 59  1  1
 17 60  1  0
 17 61  1  0
 17 62  1  0
 19 63  1  0
 22 64  1  0
 28 65  1  0
 28 66  1  0
 32 67  1  0
 32 68  1  0
 33 69  1  0
 35 70  1  0
 36 71  1  0
 37 72  1  0
 38 73  1  0
 40 74  1  0
 42 75  1  0
 46 76  1  0
 49 77  1  0
 49 78  1  0
M  CHG  3   5  -1  23   1  26  -1
M  END
>  <EmbedRMS>  (327) 
0.0829531641369

$$$$

     RDKit          3D

 78 83  0  0  0  0  0  0  0  0999 V2000
   10.2834   43.7663   33.8257 C   0  0  0  0  0  0  0  0  0  0  0  0
   11.4102   43.5930   34.3752 O   0  0  0  0  0  0  0  0  0  0  0  0
    9.3635   42.7257   33.7352 O   0  0  0  0  0  0  0  0  0  0  0  0
    9.8902   41.2269   34.2941 P   0  0  0  0  0  0  0  0  0  0  0  0
   10.3739   41.4560   35.8835 O   0  0  0  0  0  0  0  0  0  0  0  0
    9.9547   45.0696   33.2036 C   0  0  1  0  0  0  0  0  0  0  0  0
   11.0273   46.0323   33.4760 N   0  0  0  0  0  0  0  0  0  0  0  0
    9.7471   44.8485   31.6877 C   0  0  0  0  0  0  0  0  0  0  0  0
    8.7926   45.8411   31.0847 C   0  0  0  0  0  0  0  0  0  0  0  0
    7.4060   45.6008   31.0989 C   0  0  0  0  0  0  0  0  0  0  0  0
    9.2818   46.9875   30.4415 C   0  0  0  0  0  0  0  0  0  0  0  0
    6.5247   46.5005   30.4839 C   0  0  0  0  0  0  0  0  0  0  0  0
    8.4004   47.8874   29.8314 C   0  0  0  0  0  0  0  0  0  0  0  0
    7.0182   47.6580   29.8481 C   0  0  0  0  0  0  0  0  0  0  0  0
    6.1827   48.5993   29.2242 O   0  0  0  0  0  0  0  0  0  0  0  0
    4.7548   48.5842   29.2425 C   0  0  2  0  0  0  0  0  0  0  0  0
    4.2219   49.5830   28.2148 C   0  0  0  0  0  0  0  0  0  0  0  0
    4.2137   48.8891   30.6318 C   0  0  0  0  0  0  0  0  0  0  0  0
    3.3085   47.9657   31.2105 C   0  0  0  0  0  0  0  0  0  0  0  0
    4.5360   50.0904   31.3491 C   0  0  0  0  0  0  0  0  0  0  0  0
    2.7675   48.2545   32.4565 C   0  0  0  0  0  0  0  0  0  0  0  0
    3.9436   50.3375   32.6072 C   0  0  0  0  0  0  0  0  0  0  0  0
    5.4356   51.0700   30.8166 N   0  0  0  0  0  0  0  0  0  0  0  0
    1.8776   47.5045   33.2012 O   0  0  0  0  0  0  0  0  0  0  0  0
    3.0705   49.3907   33.1248 C   0  0  0  0  0  0  0  0  0  0  0  0
    6.7691   50.7681   30.6764 O   0  0  0  0  0  0  0  0  0  0  0  0
    5.0808   52.2655   30.7646 O   0  0  0  0  0  0  0  0  0  0  0  0
    1.6071   48.2169   34.4161 C   0  0  0  0  0  0  0  0  0  0  0  0
    2.3887   49.4160   34.3261 O   0  0  0  0  0  0  0  0  0  0  0  0
    8.8120   40.1852   34.2131 O   0  0  0  0  0  0  0  0  0  0  0  0
   11.2402   40.7952   33.3682 O   0  0  0  0  0  0  0  0  0  0  0  0
   10.9126   40.6877   31.9968 C   0  0  0  0  0  0  0  0  0  0  0  0
   11.5169   39.3811   31.4421 C   0  0  0  0  0  0  0  0  0  0  0  0
   12.7500   39.0881   32.0759 O   0  0  0  0  0  0  0  0  0  0  0  0
   10.6043   38.1893   31.6659 C   0  0  0  0  0  0  0  0  0  0  0  0
   12.9395   37.6814   32.0280 C   0  0  0  0  0  0  0  0  0  0  0  0
    9.6353   38.0951   30.6499 O   0  0  0  0  0  0  0  0  0  0  0  0
   11.5804   37.0191   31.6934 C   0  0  0  0  0  0  0  0  0  0  0  0
   13.4851   37.2119   33.3244 N   0  0  0  0  0  0  0  0  0  0  0  0
   11.6118   36.3189   30.4673 O   0  0  0  0  0  0  0  0  0  0  0  0
   14.4801   36.3316   33.5732 C   0  0  0  0  0  0  0  0  0  0  0  0
   13.1139   37.6277   34.5692 C   0  0  0  0  0  0  0  0  0  0  0  0
   15.2076   35.6154   32.6744 N   0  0  0  0  0  0  0  0  0  0  0  0
   14.6756   36.2303   34.9186 C   0  0  0  0  0  0  0  0  0  0  0  0
   13.8215   37.0451   35.5786 N   0  0  0  0  0  0  0  0  0  0  0  0
   16.1642   34.7602   33.1551 C   0  0  0  0  0  0  0  0  0  0  0  0
   15.6526   35.3505   35.4134 C   0  0  0  0  0  0  0  0  0  0  0  0
   16.3796   34.6316   34.5045 N   0  0  0  0  0  0  0  0  0  0  0  0
   15.9001   35.1933   36.8093 N   0  0  0  0  0  0  0  0  0  0  0  0
    9.0120   45.4319   33.6713 H   0  0  0  0  0  0  0  0  0  0  0  0
   11.8907   45.7660   32.9477 H   0  0  0  0  0  0  0  0  0  0  0  0
   10.7260   46.9689   33.1216 H   0  0  0  0  0  0  0  0  0  0  0  0
   10.7236   44.8825   31.1559 H   0  0  0  0  0  0  0  0  0  0  0  0
    9.3425   43.8332   31.4759 H   0  0  0  0  0  0  0  0  0  0  0  0
    7.0105   44.7142   31.5792 H   0  0  0  0  0  0  0  0  0  0  0  0
   10.3460   47.1858   30.4094 H   0  0  0  0  0  0  0  0  0  0  0  0
    5.4687   46.2786   30.5056 H   0  0  0  0  0  0  0  0  0  0  0  0
    8.7938   48.7697   29.3426 H   0  0  0  0  0  0  0  0  0  0  0  0
    4.4098   47.5827   28.9011 H   0  0  0  0  0  0  0  0  0  0  0  0
    4.5438   49.2767   27.1968 H   0  0  0  0  0  0  0  0  0  0  0  0
    3.1113   49.6038   28.2397 H   0  0  0  0  0  0  0  0  0  0  0  0
    4.6085   50.6046   28.4049 H   0  0  0  0  0  0  0  0  0  0  0  0
    3.0252   47.0528   30.7022 H   0  0  0  0  0  0  0  0  0  0  0  0
    4.1675   51.2371   33.1662 H   0  0  0  0  0  0  0  0  0  0  0  0
    0.5275   48.4673   34.4822 H   0  0  0  0  0  0  0  0  0  0  0  0
    1.9269   47.6160   35.2931 H   0  0  0  0  0  0  0  0  0  0  0  0
    9.8216   40.7222   31.7646 H   0  0  0  0  0  0  0  0  0  0  0  0
   11.3808   41.5456   31.4686 H   0  0  0  0  0  0  0  0  0  0  0  0
   11.6986   39.5089   30.3499 H   0  0  0  0  0  0  0  0  0  0  0  0
   10.1109   38.2737   32.6630 H   0  0  0  0  0  0  0  0  0  0  0  0
   13.6783   37.4562   31.2271 H   0  0  0  0  0  0  0  0  0  0  0  0
    9.0020   37.3860   30.9348 H   0  0  0  0  0  0  0  0  0  0  0  0
   11.2807   36.3053   32.4921 H   0  0  0  0  0  0  0  0  0  0  0  0
   11.8818   36.9600   29.7584 H   0  0  0  0  0  0  0  0  0  0  0  0
   12.3303   38.3538   34.7446 H   0  0  0  0  0  0  0  0  0  0  0  0
   16.7563   34.1783   32.4623 H   0  0  0  0  0  0  0  0  0  0  0  0
   15.3532   35.7359   37.5142 H   0  0  0  0  0  0  0  0  0  0  0  0
   16.6348   34.5301   37.1418 H   0  0  0  0  0  0  0  0  0  0  0  0
  1  2  2  0
  1  3  1  0
  3  4  1  0
  4  5  1  0
  6  1  1  0
  7  6  1  0
  6  8  1  0
  8  9  1  0
  9 10  2  0
 11  9  1  0
 10 12  1  0
 13 11  2  0
 12 14  2  0
 14 13  1  0
 14 15  1  0
 15 16  1  0
 16 17  1  0
 16 18  1  0
 18 19  2  0
 20 18  1  0
 19 21  1  0
 22 20  2  0
 20 23  1  0
 21 24  1  0
 21 25  2  0
 25 22  1  0
 23 26  1  0
 23 27  2  0
 24 28  1  0
 25 29  1  0
 28 29  1  0
  4 30  2  0
  4 31  1  0
 32 31  1  0
 32 33  1  0
 33 34  1  0
 33 35  1  0
 34 36  1  0
 35 37  1  0
 35 38  1  0
 38 36  1  0
 36 39  1  0
 38 40  1  0
 41 39  1  0
 42 39  1  0
 43 41  2  0
 41 44  1  0
 45 42  2  0
 46 43  1  0
 44 47  2  0
 44 45  1  0
 48 46  2  0
 48 47  1  0
 47 49  1  0
  6 50  1  1
  7 51  1  0
  7 52  1  0
  8 53  1  0
  8 54  1  0
 10 55  1  0
 11 56  1  0
 12 57  1  0
 13 58  1  0
 16 59  1  6
 17 60  1  0
 17 61  1  0
 17 62  1  0
 19 63  1  0
 22 64  1  0
 28 65  1  0
 28 66  1  0
 32 67  1  0
 32 68  1  0
 33 69  1  0
 35 70  1  0
 36 71  1  0
 37 72  1  0
 38 73  1  0
 40 74  1  0
 42 75  1  0
 46 76  1  0
 49 77  1  0
 49 78  1  0
M  CHG  3   5  -1  23   1  26  -1
M  END
>  <EmbedRMS>  (328) 
0.0815528613111

$$$$

     RDKit          3D

 78 83  0  0  0  0  0  0  0  0999 V2000
   10.2844   43.7628   33.8282 C   0  0  0  0  0  0  0  0  0  0  0  0
   11.4111   43.5866   34.3769 O   0  0  0  0  0  0  0  0  0  0  0  0
    9.3638   42.7236   33.7359 O   0  0  0  0  0  0  0  0  0  0  0  0
    9.8901   41.2247   34.2943 P   0  0  0  0  0  0  0  0  0  0  0  0
   10.3736   41.4548   35.8836 O   0  0  0  0  0  0  0  0  0  0  0  0
    9.9546   45.0701   33.2074 C   0  0  1  0  0  0  0  0  0  0  0  0
   11.0194   46.0485   33.4571 N   0  0  0  0  0  0  0  0  0  0  0  0
    9.7488   44.8510   31.6936 C   0  0  0  0  0  0  0  0  0  0  0  0
    8.7933   45.8427   31.0891 C   0  0  0  0  0  0  0  0  0  0  0  0
    7.4062   45.6032   31.1033 C   0  0  0  0  0  0  0  0  0  0  0  0
    9.2831   46.9905   30.4488 C   0  0  0  0  0  0  0  0  0  0  0  0
    6.5275   46.5022   30.4834 C   0  0  0  0  0  0  0  0  0  0  0  0
    8.4045   47.8898   29.8337 C   0  0  0  0  0  0  0  0  0  0  0  0
    7.0164   47.6452   29.8357 C   0  0  0  0  0  0  0  0  0  0  0  0
    6.0963   48.4938   29.1981 O   0  0  0  0  0  0  0  0  0  0  0  0
    6.4382   49.6153   28.3779 C   0  0  2  0  0  0  0  0  0  0  0  0
    5.1592   50.3677   28.0154 C   0  0  0  0  0  0  0  0  0  0  0  0
    7.1484   49.1582   27.1143 C   0  0  0  0  0  0  0  0  0  0  0  0
    6.6336   48.0402   26.4133 C   0  0  0  0  0  0  0  0  0  0  0  0
    8.3527   49.7827   26.6507 C   0  0  0  0  0  0  0  0  0  0  0  0
    7.3390   47.5625   25.3167 C   0  0  0  0  0  0  0  0  0  0  0  0
    9.0370   49.2418   25.5383 C   0  0  0  0  0  0  0  0  0  0  0  0
    8.8767   50.9624   27.2791 N   0  0  0  0  0  0  0  0  0  0  0  0
    7.0354   46.4899   24.5004 O   0  0  0  0  0  0  0  0  0  0  0  0
    8.4929   48.1341   24.9015 C   0  0  0  0  0  0  0  0  0  0  0  0
    8.0520   52.0343   27.5306 O   0  0  0  0  0  0  0  0  0  0  0  0
   10.1095   51.1090   27.4012 O   0  0  0  0  0  0  0  0  0  0  0  0
    8.0656   46.3833   23.5083 C   0  0  0  0  0  0  0  0  0  0  0  0
    8.9760   47.4521   23.8013 O   0  0  0  0  0  0  0  0  0  0  0  0
    8.8119   40.1831   34.2129 O   0  0  0  0  0  0  0  0  0  0  0  0
   11.2413   40.7931   33.3697 O   0  0  0  0  0  0  0  0  0  0  0  0
   10.9176   40.6901   31.9972 C   0  0  0  0  0  0  0  0  0  0  0  0
   11.5181   39.3815   31.4406 C   0  0  0  0  0  0  0  0  0  0  0  0
   12.7498   39.0873   32.0742 O   0  0  0  0  0  0  0  0  0  0  0  0
   10.6046   38.1891   31.6654 C   0  0  0  0  0  0  0  0  0  0  0  0
   12.9344   37.6804   32.0291 C   0  0  0  0  0  0  0  0  0  0  0  0
    9.6414   38.0755   30.6443 O   0  0  0  0  0  0  0  0  0  0  0  0
   11.5742   37.0172   31.7045 C   0  0  0  0  0  0  0  0  0  0  0  0
   13.4852   37.2129   33.3241 N   0  0  0  0  0  0  0  0  0  0  0  0
   11.6080   36.3413   30.4679 O   0  0  0  0  0  0  0  0  0  0  0  0
   14.4800   36.3321   33.5724 C   0  0  0  0  0  0  0  0  0  0  0  0
   13.1142   37.6279   34.5693 C   0  0  0  0  0  0  0  0  0  0  0  0
   15.2072   35.6158   32.6735 N   0  0  0  0  0  0  0  0  0  0  0  0
   14.6756   36.2301   34.9179 C   0  0  0  0  0  0  0  0  0  0  0  0
   13.8216   37.0446   35.5784 N   0  0  0  0  0  0  0  0  0  0  0  0
   16.1637   34.7603   33.1541 C   0  0  0  0  0  0  0  0  0  0  0  0
   15.6524   35.3502   35.4125 C   0  0  0  0  0  0  0  0  0  0  0  0
   16.3792   34.6314   34.5035 N   0  0  0  0  0  0  0  0  0  0  0  0
   15.9000   35.1925   36.8084 N   0  0  0  0  0  0  0  0  0  0  0  0
    9.0101   45.4352   33.6690 H   0  0  0  0  0  0  0  0  0  0  0  0
   11.9340   45.6941   33.0916 H   0  0  0  0  0  0  0  0  0  0  0  0
   11.1139   46.1991   34.4883 H   0  0  0  0  0  0  0  0  0  0  0  0
   10.7286   44.8927   31.1681 H   0  0  0  0  0  0  0  0  0  0  0  0
    9.3488   43.8347   31.4773 H   0  0  0  0  0  0  0  0  0  0  0  0
    7.0090   44.7195   31.5876 H   0  0  0  0  0  0  0  0  0  0  0  0
   10.3473   47.1908   30.4238 H   0  0  0  0  0  0  0  0  0  0  0  0
    5.4635   46.3024   30.4948 H   0  0  0  0  0  0  0  0  0  0  0  0
    8.8182   48.7663   29.3568 H   0  0  0  0  0  0  0  0  0  0  0  0
    7.0707   50.2997   28.9795 H   0  0  0  0  0  0  0  0  0  0  0  0
    5.3922   51.2379   27.3639 H   0  0  0  0  0  0  0  0  0  0  0  0
    4.4481   49.6982   27.4852 H   0  0  0  0  0  0  0  0  0  0  0  0
    4.6700   50.7415   28.9401 H   0  0  0  0  0  0  0  0  0  0  0  0
    5.7246   47.5445   26.7286 H   0  0  0  0  0  0  0  0  0  0  0  0
    9.9517   49.6873   25.1684 H   0  0  0  0  0  0  0  0  0  0  0  0
    8.5828   45.4049   23.5958 H   0  0  0  0  0  0  0  0  0  0  0  0
    7.6359   46.5130   22.4925 H   0  0  0  0  0  0  0  0  0  0  0  0
   11.3944   41.5458   31.4730 H   0  0  0  0  0  0  0  0  0  0  0  0
    9.8286   40.7384   31.7621 H   0  0  0  0  0  0  0  0  0  0  0  0
   11.7002   39.5078   30.3484 H   0  0  0  0  0  0  0  0  0  0  0  0
   10.1097   38.2633   32.6633 H   0  0  0  0  0  0  0  0  0  0  0  0
   13.6663   37.4515   31.2229 H   0  0  0  0  0  0  0  0  0  0  0  0
    8.9008   38.6927   30.8793 H   0  0  0  0  0  0  0  0  0  0  0  0
   11.2653   36.3085   32.5089 H   0  0  0  0  0  0  0  0  0  0  0  0
   12.1368   35.5144   30.6163 H   0  0  0  0  0  0  0  0  0  0  0  0
   12.3302   38.3534   34.7451 H   0  0  0  0  0  0  0  0  0  0  0  0
   16.7555   34.1779   32.4617 H   0  0  0  0  0  0  0  0  0  0  0  0
   16.6350   34.5298   37.1408 H   0  0  0  0  0  0  0  0  0  0  0  0
   15.3541   35.7356   37.5136 H   0  0  0  0  0  0  0  0  0  0  0  0
  1  2  2  0
  1  3  1  0
  3  4  1  0
  4  5  1  0
  6  1  1  0
  7  6  1  0
  6  8  1  0
  8  9  1  0
  9 10  2  0
 11  9  1  0
 10 12  1  0
 13 11  2  0
 12 14  2  0
 14 13  1  0
 14 15  1  0
 15 16  1  0
 16 17  1  0
 16 18  1  0
 18 19  2  0
 20 18  1  0
 19 21  1  0
 22 20  2  0
 20 23  1  0
 21 24  1  0
 21 25  2  0
 25 22  1  0
 23 26  1  0
 23 27  2  0
 24 28  1  0
 25 29  1  0
 28 29  1  0
  4 30  2  0
  4 31  1  0
 32 31  1  0
 32 33  1  0
 33 34  1  0
 33 35  1  0
 34 36  1  0
 35 37  1  0
 35 38  1  0
 38 36  1  0
 36 39  1  0
 38 40  1  0
 41 39  1  0
 42 39  1  0
 43 41  2  0
 41 44  1  0
 45 42  2  0
 46 43  1  0
 44 47  2  0
 44 45  1  0
 48 46  2  0
 48 47  1  0
 47 49  1  0
  6 50  1  1
  7 51  1  0
  7 52  1  0
  8 53  1  0
  8 54  1  0
 10 55  1  0
 11 56  1  0
 12 57  1  0
 13 58  1  0
 16 59  1  1
 17 60  1  0
 17 61  1  0
 17 62  1  0
 19 63  1  0
 22 64  1  0
 28 65  1  0
 28 66  1  0
 32 67  1  0
 32 68  1  0
 33 69  1  0
 35 70  1  0
 36 71  1  0
 37 72  1  0
 38 73  1  0
 40 74  1  0
 42 75  1  0
 46 76  1  0
 49 77  1  0
 49 78  1  0
M  CHG  3   5  -1  23   1  26  -1
M  END
>  <EmbedRMS>  (329) 
0.0838126746061

$$$$

     RDKit          3D

 78 83  0  0  0  0  0  0  0  0999 V2000
   10.2834   43.7662   33.8256 C   0  0  0  0  0  0  0  0  0  0  0  0
   11.4102   43.5930   34.3752 O   0  0  0  0  0  0  0  0  0  0  0  0
    9.3637   42.7255   33.7348 O   0  0  0  0  0  0  0  0  0  0  0  0
    9.8907   41.2265   34.2933 P   0  0  0  0  0  0  0  0  0  0  0  0
   10.3743   41.4557   35.8827 O   0  0  0  0  0  0  0  0  0  0  0  0
    9.9546   45.0694   33.2035 C   0  0  1  0  0  0  0  0  0  0  0  0
   11.0274   46.0321   33.4755 N   0  0  0  0  0  0  0  0  0  0  0  0
    9.7465   44.8480   31.6876 C   0  0  0  0  0  0  0  0  0  0  0  0
    8.7923   45.8408   31.0844 C   0  0  0  0  0  0  0  0  0  0  0  0
    7.4055   45.6018   31.0994 C   0  0  0  0  0  0  0  0  0  0  0  0
    9.2823   46.9879   30.4426 C   0  0  0  0  0  0  0  0  0  0  0  0
    6.5267   46.5034   30.4843 C   0  0  0  0  0  0  0  0  0  0  0  0
    8.4033   47.8903   29.8323 C   0  0  0  0  0  0  0  0  0  0  0  0
    7.0141   47.6520   29.8462 C   0  0  0  0  0  0  0  0  0  0  0  0
    6.0890   48.5163   29.2374 O   0  0  0  0  0  0  0  0  0  0  0  0
    6.4212   49.6930   28.4971 C   0  0  2  0  0  0  0  0  0  0  0  0
    5.1594   50.5132   28.2315 C   0  0  0  0  0  0  0  0  0  0  0  0
    7.1359   49.3743   27.1917 C   0  0  0  0  0  0  0  0  0  0  0  0
    8.0834   50.3190   26.7279 C   0  0  0  0  0  0  0  0  0  0  0  0
    6.9339   48.1618   26.4445 C   0  0  0  0  0  0  0  0  0  0  0  0
    8.8067   50.0297   25.5790 C   0  0  0  0  0  0  0  0  0  0  0  0
    7.7126   47.9174   25.2897 C   0  0  0  0  0  0  0  0  0  0  0  0
    5.9671   47.1744   26.8355 N   0  0  0  0  0  0  0  0  0  0  0  0
    9.7766   50.7941   24.9594 O   0  0  0  0  0  0  0  0  0  0  0  0
    8.6321   48.8781   24.8927 C   0  0  0  0  0  0  0  0  0  0  0  0
    4.6661   47.5378   27.0901 O   0  0  0  0  0  0  0  0  0  0  0  0
    6.2449   45.9610   26.7413 O   0  0  0  0  0  0  0  0  0  0  0  0
   10.2392   50.0737   23.8089 C   0  0  0  0  0  0  0  0  0  0  0  0
    9.4821   48.8558   23.8037 O   0  0  0  0  0  0  0  0  0  0  0  0
    8.8123   40.1851   34.2127 O   0  0  0  0  0  0  0  0  0  0  0  0
   11.2407   40.7945   33.3670 O   0  0  0  0  0  0  0  0  0  0  0  0
   10.9134   40.6866   31.9954 C   0  0  0  0  0  0  0  0  0  0  0  0
   11.5167   39.3787   31.4404 C   0  0  0  0  0  0  0  0  0  0  0  0
   12.7486   39.0849   32.0734 O   0  0  0  0  0  0  0  0  0  0  0  0
   10.6039   38.1884   31.6669 C   0  0  0  0  0  0  0  0  0  0  0  0
   12.9329   37.6776   32.0284 C   0  0  0  0  0  0  0  0  0  0  0  0
    9.6374   38.0938   30.6484 O   0  0  0  0  0  0  0  0  0  0  0  0
   11.5737   37.0141   31.7055 C   0  0  0  0  0  0  0  0  0  0  0  0
   13.4853   37.2120   33.3238 N   0  0  0  0  0  0  0  0  0  0  0  0
   11.6210   36.3379   30.4683 O   0  0  0  0  0  0  0  0  0  0  0  0
   14.4804   36.3319   33.5726 C   0  0  0  0  0  0  0  0  0  0  0  0
   13.1141   37.6275   34.5689 C   0  0  0  0  0  0  0  0  0  0  0  0
   15.2076   35.6152   32.6740 N   0  0  0  0  0  0  0  0  0  0  0  0
   14.6761   36.2306   34.9181 C   0  0  0  0  0  0  0  0  0  0  0  0
   13.8218   37.0451   35.5783 N   0  0  0  0  0  0  0  0  0  0  0  0
   16.1642   34.7600   33.1548 C   0  0  0  0  0  0  0  0  0  0  0  0
   15.6527   35.3507   35.4131 C   0  0  0  0  0  0  0  0  0  0  0  0
   16.3795   34.6315   34.5043 N   0  0  0  0  0  0  0  0  0  0  0  0
   15.9001   35.1933   36.8090 N   0  0  0  0  0  0  0  0  0  0  0  0
    9.0121   45.4317   33.6714 H   0  0  0  0  0  0  0  0  0  0  0  0
   10.7259   46.9687   33.1212 H   0  0  0  0  0  0  0  0  0  0  0  0
   11.8906   45.7658   32.9468 H   0  0  0  0  0  0  0  0  0  0  0  0
    9.3413   43.8329   31.4762 H   0  0  0  0  0  0  0  0  0  0  0  0
   10.7228   44.8814   31.1555 H   0  0  0  0  0  0  0  0  0  0  0  0
    7.0083   44.7167   31.5809 H   0  0  0  0  0  0  0  0  0  0  0  0
   10.3469   47.1849   30.4118 H   0  0  0  0  0  0  0  0  0  0  0  0
    5.4624   46.3058   30.4993 H   0  0  0  0  0  0  0  0  0  0  0  0
    8.8174   48.7641   29.3498 H   0  0  0  0  0  0  0  0  0  0  0  0
    7.0763   50.3247   29.1385 H   0  0  0  0  0  0  0  0  0  0  0  0
    5.4282   51.4841   27.7630 H   0  0  0  0  0  0  0  0  0  0  0  0
    4.6381   50.7204   29.1901 H   0  0  0  0  0  0  0  0  0  0  0  0
    4.4620   49.9778   27.5570 H   0  0  0  0  0  0  0  0  0  0  0  0
    8.2620   51.2467   27.2571 H   0  0  0  0  0  0  0  0  0  0  0  0
    7.5897   47.0119   24.7093 H   0  0  0  0  0  0  0  0  0  0  0  0
   10.0368   50.6548   22.8849 H   0  0  0  0  0  0  0  0  0  0  0  0
   11.3226   49.8510   23.9053 H   0  0  0  0  0  0  0  0  0  0  0  0
   11.3828   41.5438   31.4669 H   0  0  0  0  0  0  0  0  0  0  0  0
    9.8225   40.7225   31.7631 H   0  0  0  0  0  0  0  0  0  0  0  0
   11.6979   39.5037   30.3478 H   0  0  0  0  0  0  0  0  0  0  0  0
   10.1084   38.2787   32.6627 H   0  0  0  0  0  0  0  0  0  0  0  0
   13.6638   37.4472   31.2214 H   0  0  0  0  0  0  0  0  0  0  0  0
    8.9763   37.4191   30.9532 H   0  0  0  0  0  0  0  0  0  0  0  0
   11.2821   36.3054   32.5172 H   0  0  0  0  0  0  0  0  0  0  0  0
   10.8658   35.6935   30.4652 H   0  0  0  0  0  0  0  0  0  0  0  0
   12.3293   38.3523   34.7444 H   0  0  0  0  0  0  0  0  0  0  0  0
   16.7561   34.1778   32.4621 H   0  0  0  0  0  0  0  0  0  0  0  0
   16.6345   34.5300   37.1416 H   0  0  0  0  0  0  0  0  0  0  0  0
   15.3533   35.7361   37.5138 H   0  0  0  0  0  0  0  0  0  0  0  0
  1  2  2  0
  1  3  1  0
  3  4  1  0
  4  5  1  0
  6  1  1  0
  7  6  1  0
  6  8  1  0
  8  9  1  0
  9 10  2  0
 11  9  1  0
 10 12  1  0
 13 11  2  0
 12 14  2  0
 14 13  1  0
 14 15  1  0
 15 16  1  0
 16 17  1  0
 16 18  1  0
 18 19  2  0
 20 18  1  0
 19 21  1  0
 22 20  2  0
 20 23  1  0
 21 24  1  0
 21 25  2  0
 25 22  1  0
 23 26  1  0
 23 27  2  0
 24 28  1  0
 25 29  1  0
 28 29  1  0
  4 30  2  0
  4 31  1  0
 32 31  1  0
 32 33  1  0
 33 34  1  0
 33 35  1  0
 34 36  1  0
 35 37  1  0
 35 38  1  0
 38 36  1  0
 36 39  1  0
 38 40  1  0
 41 39  1  0
 42 39  1  0
 43 41  2  0
 41 44  1  0
 45 42  2  0
 46 43  1  0
 44 47  2  0
 44 45  1  0
 48 46  2  0
 48 47  1  0
 47 49  1  0
  6 50  1  1
  7 51  1  0
  7 52  1  0
  8 53  1  0
  8 54  1  0
 10 55  1  0
 11 56  1  0
 12 57  1  0
 13 58  1  0
 16 59  1  1
 17 60  1  0
 17 61  1  0
 17 62  1  0
 19 63  1  0
 22 64  1  0
 28 65  1  0
 28 66  1  0
 32 67  1  0
 32 68  1  0
 33 69  1  0
 35 70  1  0
 36 71  1  0
 37 72  1  0
 38 73  1  0
 40 74  1  0
 42 75  1  0
 46 76  1  0
 49 77  1  0
 49 78  1  0
M  CHG  3   5  -1  23   1  26  -1
M  END
>  <EmbedRMS>  (330) 
0.0825679304728

$$$$

     RDKit          3D

 78 83  0  0  0  0  0  0  0  0999 V2000
   10.2844   43.7660   33.8264 C   0  0  0  0  0  0  0  0  0  0  0  0
   11.4104   43.5941   34.3778 O   0  0  0  0  0  0  0  0  0  0  0  0
    9.3643   42.7252   33.7368 O   0  0  0  0  0  0  0  0  0  0  0  0
    9.8915   41.2265   34.2942 P   0  0  0  0  0  0  0  0  0  0  0  0
   10.3756   41.4548   35.8835 O   0  0  0  0  0  0  0  0  0  0  0  0
    9.9555   45.0685   33.2022 C   0  0  1  0  0  0  0  0  0  0  0  0
   11.0288   46.0314   33.4745 N   0  0  0  0  0  0  0  0  0  0  0  0
    9.7456   44.8466   31.6863 C   0  0  0  0  0  0  0  0  0  0  0  0
    8.7916   45.8390   31.0825 C   0  0  0  0  0  0  0  0  0  0  0  0
    7.4044   45.6020   31.1004 C   0  0  0  0  0  0  0  0  0  0  0  0
    9.2816   46.9872   30.4429 C   0  0  0  0  0  0  0  0  0  0  0  0
    6.5252   46.5040   30.4859 C   0  0  0  0  0  0  0  0  0  0  0  0
    8.4018   47.8905   29.8351 C   0  0  0  0  0  0  0  0  0  0  0  0
    7.0108   47.6505   29.8418 C   0  0  0  0  0  0  0  0  0  0  0  0
    6.0714   48.5161   29.2438 O   0  0  0  0  0  0  0  0  0  0  0  0
    6.3445   49.6694   28.4305 C   0  0  2  0  0  0  0  0  0  0  0  0
    7.1636   49.2512   27.1889 C   0  0  0  0  0  0  0  0  0  0  0  0
    6.9669   50.8169   29.2325 C   0  0  0  0  0  0  0  0  0  0  0  0
    7.0259   50.7369   30.6508 C   0  0  0  0  0  0  0  0  0  0  0  0
    7.4785   51.9969   28.5943 C   0  0  0  0  0  0  0  0  0  0  0  0
    7.6793   51.7431   31.3511 C   0  0  0  0  0  0  0  0  0  0  0  0
    8.1524   52.9814   29.3551 C   0  0  0  0  0  0  0  0  0  0  0  0
    7.2893   52.2339   27.1930 N   0  0  0  0  0  0  0  0  0  0  0  0
    7.8815   51.8460   32.7112 O   0  0  0  0  0  0  0  0  0  0  0  0
    8.2310   52.8140   30.7295 C   0  0  0  0  0  0  0  0  0  0  0  0
    8.3532   52.6680   26.4244 O   0  0  0  0  0  0  0  0  0  0  0  0
    6.1305   52.2754   26.7185 O   0  0  0  0  0  0  0  0  0  0  0  0
    8.6163   53.0563   32.9600 C   0  0  0  0  0  0  0  0  0  0  0  0
    8.8150   53.6471   31.6674 O   0  0  0  0  0  0  0  0  0  0  0  0
    8.8139   40.1839   34.2104 O   0  0  0  0  0  0  0  0  0  0  0  0
   11.2436   40.8005   33.3678 O   0  0  0  0  0  0  0  0  0  0  0  0
   10.9166   40.6928   31.9967 C   0  0  0  0  0  0  0  0  0  0  0  0
   11.5187   39.3846   31.4422 C   0  0  0  0  0  0  0  0  0  0  0  0
   12.7518   39.0904   32.0755 O   0  0  0  0  0  0  0  0  0  0  0  0
   10.6036   38.1921   31.6657 C   0  0  0  0  0  0  0  0  0  0  0  0
   12.9389   37.6832   32.0300 C   0  0  0  0  0  0  0  0  0  0  0  0
    9.6393   38.0826   30.6455 O   0  0  0  0  0  0  0  0  0  0  0  0
   11.5792   37.0224   31.6948 C   0  0  0  0  0  0  0  0  0  0  0  0
   13.4853   37.2148   33.3266 N   0  0  0  0  0  0  0  0  0  0  0  0
   11.6128   36.3194   30.4700 O   0  0  0  0  0  0  0  0  0  0  0  0
   14.4786   36.3323   33.5742 C   0  0  0  0  0  0  0  0  0  0  0  0
   13.1139   37.6288   34.5720 C   0  0  0  0  0  0  0  0  0  0  0  0
   15.2041   35.6154   32.6744 N   0  0  0  0  0  0  0  0  0  0  0  0
   14.6747   36.2293   34.9190 C   0  0  0  0  0  0  0  0  0  0  0  0
   13.8209   37.0434   35.5805 N   0  0  0  0  0  0  0  0  0  0  0  0
   16.1606   34.7593   33.1530 C   0  0  0  0  0  0  0  0  0  0  0  0
   15.6516   35.3488   35.4122 C   0  0  0  0  0  0  0  0  0  0  0  0
   16.3784   34.6306   34.5023 N   0  0  0  0  0  0  0  0  0  0  0  0
   15.8988   35.1911   36.8080 N   0  0  0  0  0  0  0  0  0  0  0  0
    9.0113   45.4271   33.6687 H   0  0  0  0  0  0  0  0  0  0  0  0
   11.8893   45.7652   32.9420 H   0  0  0  0  0  0  0  0  0  0  0  0
   10.7320   46.9702   33.1224 H   0  0  0  0  0  0  0  0  0  0  0  0
    9.3386   43.8312   31.4778 H   0  0  0  0  0  0  0  0  0  0  0  0
   10.7195   44.8806   31.1502 H   0  0  0  0  0  0  0  0  0  0  0  0
    7.0057   44.7185   31.5848 H   0  0  0  0  0  0  0  0  0  0  0  0
   10.3456   47.1926   30.4252 H   0  0  0  0  0  0  0  0  0  0  0  0
    5.4598   46.3086   30.5072 H   0  0  0  0  0  0  0  0  0  0  0  0
    8.8184   48.7802   29.3911 H   0  0  0  0  0  0  0  0  0  0  0  0
    5.3592   50.0353   28.0668 H   0  0  0  0  0  0  0  0  0  0  0  0
    6.8134   49.8001   26.2902 H   0  0  0  0  0  0  0  0  0  0  0  0
    8.2510   49.4478   27.3080 H   0  0  0  0  0  0  0  0  0  0  0  0
    7.0201   48.1683   26.9770 H   0  0  0  0  0  0  0  0  0  0  0  0
    6.5794   49.9247   31.2008 H   0  0  0  0  0  0  0  0  0  0  0  0
    8.5661   53.8701   28.8901 H   0  0  0  0  0  0  0  0  0  0  0  0
    8.0216   53.7385   33.6042 H   0  0  0  0  0  0  0  0  0  0  0  0
    9.5921   52.8215   33.4336 H   0  0  0  0  0  0  0  0  0  0  0  0
   11.3845   41.5505   31.4660 H   0  0  0  0  0  0  0  0  0  0  0  0
    9.8262   40.7321   31.7679 H   0  0  0  0  0  0  0  0  0  0  0  0
   11.7008   39.5096   30.3495 H   0  0  0  0  0  0  0  0  0  0  0  0
   10.1110   38.2574   32.6654 H   0  0  0  0  0  0  0  0  0  0  0  0
   13.6763   37.4537   31.2293 H   0  0  0  0  0  0  0  0  0  0  0  0
    8.8987   38.6983   30.8843 H   0  0  0  0  0  0  0  0  0  0  0  0
   11.2806   36.3085   32.4939 H   0  0  0  0  0  0  0  0  0  0  0  0
   11.8812   36.9592   29.7595 H   0  0  0  0  0  0  0  0  0  0  0  0
   12.3250   38.3493   34.7491 H   0  0  0  0  0  0  0  0  0  0  0  0
   16.7514   34.1797   32.4569 H   0  0  0  0  0  0  0  0  0  0  0  0
   16.6351   34.5306   37.1407 H   0  0  0  0  0  0  0  0  0  0  0  0
   15.3541   35.7358   37.5130 H   0  0  0  0  0  0  0  0  0  0  0  0
  1  2  2  0
  1  3  1  0
  3  4  1  0
  4  5  1  0
  6  1  1  0
  7  6  1  0
  6  8  1  0
  8  9  1  0
  9 10  2  0
 11  9  1  0
 10 12  1  0
 13 11  2  0
 12 14  2  0
 14 13  1  0
 14 15  1  0
 15 16  1  0
 16 17  1  0
 16 18  1  0
 18 19  2  0
 20 18  1  0
 19 21  1  0
 22 20  2  0
 20 23  1  0
 21 24  1  0
 21 25  2  0
 25 22  1  0
 23 26  1  0
 23 27  2  0
 24 28  1  0
 25 29  1  0
 28 29  1  0
  4 30  2  0
  4 31  1  0
 32 31  1  0
 32 33  1  0
 33 34  1  0
 33 35  1  0
 34 36  1  0
 35 37  1  0
 35 38  1  0
 38 36  1  0
 36 39  1  0
 38 40  1  0
 41 39  1  0
 42 39  1  0
 43 41  2  0
 41 44  1  0
 45 42  2  0
 46 43  1  0
 44 47  2  0
 44 45  1  0
 48 46  2  0
 48 47  1  0
 47 49  1  0
  6 50  1  1
  7 51  1  0
  7 52  1  0
  8 53  1  0
  8 54  1  0
 10 55  1  0
 11 56  1  0
 12 57  1  0
 13 58  1  0
 16 59  1  6
 17 60  1  0
 17 61  1  0
 17 62  1  0
 19 63  1  0
 22 64  1  0
 28 65  1  0
 28 66  1  0
 32 67  1  0
 32 68  1  0
 33 69  1  0
 35 70  1  0
 36 71  1  0
 37 72  1  0
 38 73  1  0
 40 74  1  0
 42 75  1  0
 46 76  1  0
 49 77  1  0
 49 78  1  0
M  CHG  3   5  -1  23   1  26  -1
M  END
>  <EmbedRMS>  (331) 
0.0818986530435

$$$$

     RDKit          3D

 78 83  0  0  0  0  0  0  0  0999 V2000
   10.2802   43.7665   33.8246 C   0  0  0  0  0  0  0  0  0  0  0  0
   11.4109   43.5920   34.3665 O   0  0  0  0  0  0  0  0  0  0  0  0
    9.3618   42.7249   33.7342 O   0  0  0  0  0  0  0  0  0  0  0  0
    9.8903   41.2265   34.2930 P   0  0  0  0  0  0  0  0  0  0  0  0
   10.3742   41.4564   35.8823 O   0  0  0  0  0  0  0  0  0  0  0  0
    9.9458   45.0736   33.2106 C   0  0  1  0  0  0  0  0  0  0  0  0
   11.0265   46.0292   33.4702 N   0  0  0  0  0  0  0  0  0  0  0  0
    9.7536   44.8540   31.6941 C   0  0  0  0  0  0  0  0  0  0  0  0
    8.7954   45.8408   31.0834 C   0  0  0  0  0  0  0  0  0  0  0  0
    7.4073   45.6012   31.1026 C   0  0  0  0  0  0  0  0  0  0  0  0
    9.2830   46.9896   30.4401 C   0  0  0  0  0  0  0  0  0  0  0  0
    6.5255   46.5025   30.4892 C   0  0  0  0  0  0  0  0  0  0  0  0
    8.4000   47.8910   29.8346 C   0  0  0  0  0  0  0  0  0  0  0  0
    7.0208   47.6448   29.8421 C   0  0  0  0  0  0  0  0  0  0  0  0
    6.1549   48.5552   29.2274 O   0  0  0  0  0  0  0  0  0  0  0  0
    5.5312   48.3617   27.9502 C   0  0  2  0  0  0  0  0  0  0  0  0
    4.5498   47.1837   27.9549 C   0  0  0  0  0  0  0  0  0  0  0  0
    6.5637   48.2483   26.8324 C   0  0  0  0  0  0  0  0  0  0  0  0
    7.4152   47.1140   26.7849 C   0  0  0  0  0  0  0  0  0  0  0  0
    6.7446   49.2902   25.8618 C   0  0  0  0  0  0  0  0  0  0  0  0
    8.4196   47.0730   25.8275 C   0  0  0  0  0  0  0  0  0  0  0  0
    7.7933   49.1995   24.9189 C   0  0  0  0  0  0  0  0  0  0  0  0
    5.8664   50.4222   25.8014 N   0  0  0  0  0  0  0  0  0  0  0  0
    9.3614   46.0850   25.6136 O   0  0  0  0  0  0  0  0  0  0  0  0
    8.6046   48.0739   24.9378 C   0  0  0  0  0  0  0  0  0  0  0  0
    4.5175   50.2275   25.6132 O   0  0  0  0  0  0  0  0  0  0  0  0
    6.3391   51.5663   25.6409 O   0  0  0  0  0  0  0  0  0  0  0  0
   10.1902   46.4942   24.5172 C   0  0  0  0  0  0  0  0  0  0  0  0
    9.6718   47.7694   24.1148 O   0  0  0  0  0  0  0  0  0  0  0  0
    8.8125   40.1844   34.2129 O   0  0  0  0  0  0  0  0  0  0  0  0
   11.2405   40.7948   33.3668 O   0  0  0  0  0  0  0  0  0  0  0  0
   10.9133   40.6867   31.9952 C   0  0  0  0  0  0  0  0  0  0  0  0
   11.5166   39.3787   31.4404 C   0  0  0  0  0  0  0  0  0  0  0  0
   12.7485   39.0849   32.0735 O   0  0  0  0  0  0  0  0  0  0  0  0
   10.6039   38.1884   31.6669 C   0  0  0  0  0  0  0  0  0  0  0  0
   12.9329   37.6776   32.0284 C   0  0  0  0  0  0  0  0  0  0  0  0
    9.6373   38.0938   30.6484 O   0  0  0  0  0  0  0  0  0  0  0  0
   11.5737   37.0141   31.7055 C   0  0  0  0  0  0  0  0  0  0  0  0
   13.4853   37.2120   33.3238 N   0  0  0  0  0  0  0  0  0  0  0  0
   11.6210   36.3379   30.4684 O   0  0  0  0  0  0  0  0  0  0  0  0
   14.4804   36.3319   33.5726 C   0  0  0  0  0  0  0  0  0  0  0  0
   13.1141   37.6275   34.5689 C   0  0  0  0  0  0  0  0  0  0  0  0
   15.2076   35.6152   32.6740 N   0  0  0  0  0  0  0  0  0  0  0  0
   14.6761   36.2306   34.9181 C   0  0  0  0  0  0  0  0  0  0  0  0
   13.8218   37.0451   35.5783 N   0  0  0  0  0  0  0  0  0  0  0  0
   16.1642   34.7600   33.1548 C   0  0  0  0  0  0  0  0  0  0  0  0
   15.6528   35.3507   35.4131 C   0  0  0  0  0  0  0  0  0  0  0  0
   16.3795   34.6315   34.5043 N   0  0  0  0  0  0  0  0  0  0  0  0
   15.9000   35.1933   36.8090 N   0  0  0  0  0  0  0  0  0  0  0  0
    8.9994   45.4382   33.6715 H   0  0  0  0  0  0  0  0  0  0  0  0
   11.0499   46.2279   34.4976 H   0  0  0  0  0  0  0  0  0  0  0  0
   10.7765   46.9368   33.0150 H   0  0  0  0  0  0  0  0  0  0  0  0
    9.3638   43.8353   31.4705 H   0  0  0  0  0  0  0  0  0  0  0  0
   10.7407   44.9075   31.1826 H   0  0  0  0  0  0  0  0  0  0  0  0
    7.0117   44.7205   31.5932 H   0  0  0  0  0  0  0  0  0  0  0  0
   10.3468   47.1896   30.4064 H   0  0  0  0  0  0  0  0  0  0  0  0
    5.4608   46.3163   30.5309 H   0  0  0  0  0  0  0  0  0  0  0  0
    8.7882   48.7737   29.3425 H   0  0  0  0  0  0  0  0  0  0  0  0
    4.9082   49.2620   27.7975 H   0  0  0  0  0  0  0  0  0  0  0  0
    5.0693   46.2147   28.0966 H   0  0  0  0  0  0  0  0  0  0  0  0
    3.8110   47.3146   28.7736 H   0  0  0  0  0  0  0  0  0  0  0  0
    4.0005   47.1490   26.9900 H   0  0  0  0  0  0  0  0  0  0  0  0
    7.3179   46.2941   27.4829 H   0  0  0  0  0  0  0  0  0  0  0  0
    7.9536   49.9738   24.1796 H   0  0  0  0  0  0  0  0  0  0  0  0
   11.2444   46.5969   24.8501 H   0  0  0  0  0  0  0  0  0  0  0  0
   10.1094   45.7670   23.6823 H   0  0  0  0  0  0  0  0  0  0  0  0
    9.8225   40.7225   31.7628 H   0  0  0  0  0  0  0  0  0  0  0  0
   11.3826   41.5438   31.4666 H   0  0  0  0  0  0  0  0  0  0  0  0
   11.6979   39.5036   30.3478 H   0  0  0  0  0  0  0  0  0  0  0  0
   10.1084   38.2787   32.6626 H   0  0  0  0  0  0  0  0  0  0  0  0
   13.6638   37.4473   31.2214 H   0  0  0  0  0  0  0  0  0  0  0  0
    8.9763   37.4191   30.9532 H   0  0  0  0  0  0  0  0  0  0  0  0
   11.2821   36.3054   32.5172 H   0  0  0  0  0  0  0  0  0  0  0  0
   10.8658   35.6935   30.4652 H   0  0  0  0  0  0  0  0  0  0  0  0
   12.3293   38.3523   34.7445 H   0  0  0  0  0  0  0  0  0  0  0  0
   16.7561   34.1778   32.4621 H   0  0  0  0  0  0  0  0  0  0  0  0
   16.6345   34.5300   37.1416 H   0  0  0  0  0  0  0  0  0  0  0  0
   15.3533   35.7361   37.5138 H   0  0  0  0  0  0  0  0  0  0  0  0
  1  2  2  0
  1  3  1  0
  3  4  1  0
  4  5  1  0
  6  1  1  0
  7  6  1  0
  6  8  1  0
  8  9  1  0
  9 10  2  0
 11  9  1  0
 10 12  1  0
 13 11  2  0
 12 14  2  0
 14 13  1  0
 14 15  1  0
 15 16  1  0
 16 17  1  0
 16 18  1  0
 18 19  2  0
 20 18  1  0
 19 21  1  0
 22 20  2  0
 20 23  1  0
 21 24  1  0
 21 25  2  0
 25 22  1  0
 23 26  1  0
 23 27  2  0
 24 28  1  0
 25 29  1  0
 28 29  1  0
  4 30  2  0
  4 31  1  0
 32 31  1  0
 32 33  1  0
 33 34  1  0
 33 35  1  0
 34 36  1  0
 35 37  1  0
 35 38  1  0
 38 36  1  0
 36 39  1  0
 38 40  1  0
 41 39  1  0
 42 39  1  0
 43 41  2  0
 41 44  1  0
 45 42  2  0
 46 43  1  0
 44 47  2  0
 44 45  1  0
 48 46  2  0
 48 47  1  0
 47 49  1  0
  6 50  1  1
  7 51  1  0
  7 52  1  0
  8 53  1  0
  8 54  1  0
 10 55  1  0
 11 56  1  0
 12 57  1  0
 13 58  1  0
 16 59  1  6
 17 60  1  0
 17 61  1  0
 17 62  1  0
 19 63  1  0
 22 64  1  0
 28 65  1  0
 28 66  1  0
 32 67  1  0
 32 68  1  0
 33 69  1  0
 35 70  1  0
 36 71  1  0
 37 72  1  0
 38 73  1  0
 40 74  1  0
 42 75  1  0
 46 76  1  0
 49 77  1  0
 49 78  1  0
M  CHG  3   5  -1  23   1  26  -1
M  END
>  <EmbedRMS>  (332) 
0.0825026629233

$$$$

     RDKit          3D

 78 83  0  0  0  0  0  0  0  0999 V2000
   10.2834   43.7663   33.8257 C   0  0  0  0  0  0  0  0  0  0  0  0
   11.4101   43.5930   34.3752 O   0  0  0  0  0  0  0  0  0  0  0  0
    9.3635   42.7257   33.7352 O   0  0  0  0  0  0  0  0  0  0  0  0
    9.8902   41.2269   34.2941 P   0  0  0  0  0  0  0  0  0  0  0  0
   10.3739   41.4560   35.8835 O   0  0  0  0  0  0  0  0  0  0  0  0
    9.9547   45.0696   33.2034 C   0  0  1  0  0  0  0  0  0  0  0  0
   11.0274   46.0322   33.4758 N   0  0  0  0  0  0  0  0  0  0  0  0
    9.7473   44.8482   31.6874 C   0  0  0  0  0  0  0  0  0  0  0  0
    8.7927   45.8406   31.0838 C   0  0  0  0  0  0  0  0  0  0  0  0
    7.4061   45.6013   31.0996 C   0  0  0  0  0  0  0  0  0  0  0  0
    9.2817   46.9879   30.4425 C   0  0  0  0  0  0  0  0  0  0  0  0
    6.5241   46.5016   30.4860 C   0  0  0  0  0  0  0  0  0  0  0  0
    8.4003   47.8885   29.8337 C   0  0  0  0  0  0  0  0  0  0  0  0
    7.0184   47.6560   29.8436 C   0  0  0  0  0  0  0  0  0  0  0  0
    6.1874   48.5985   29.2151 O   0  0  0  0  0  0  0  0  0  0  0  0
    4.7836   48.4657   28.9876 C   0  0  2  0  0  0  0  0  0  0  0  0
    4.4950   47.4266   27.8953 C   0  0  0  0  0  0  0  0  0  0  0  0
    4.1942   49.8209   28.6291 C   0  0  0  0  0  0  0  0  0  0  0  0
    3.1887   50.3521   29.4759 C   0  0  0  0  0  0  0  0  0  0  0  0
    4.5779   50.5602   27.4571 C   0  0  0  0  0  0  0  0  0  0  0  0
    2.5973   51.5608   29.1334 C   0  0  0  0  0  0  0  0  0  0  0  0
    3.9289   51.7784   27.1534 C   0  0  0  0  0  0  0  0  0  0  0  0
    5.5994   50.0943   26.5646 N   0  0  0  0  0  0  0  0  0  0  0  0
    1.6058   52.2518   29.8031 O   0  0  0  0  0  0  0  0  0  0  0  0
    2.9495   52.2422   28.0200 C   0  0  0  0  0  0  0  0  0  0  0  0
    6.8795   49.8972   27.0249 O   0  0  0  0  0  0  0  0  0  0  0  0
    5.4013   50.1207   25.3324 O   0  0  0  0  0  0  0  0  0  0  0  0
    1.3191   53.4447   29.0604 C   0  0  0  0  0  0  0  0  0  0  0  0
    2.1994   53.3989   27.9292 O   0  0  0  0  0  0  0  0  0  0  0  0
    8.8120   40.1852   34.2131 O   0  0  0  0  0  0  0  0  0  0  0  0
   11.2402   40.7951   33.3682 O   0  0  0  0  0  0  0  0  0  0  0  0
   10.9125   40.6877   31.9968 C   0  0  0  0  0  0  0  0  0  0  0  0
   11.5169   39.3811   31.4420 C   0  0  0  0  0  0  0  0  0  0  0  0
   12.7500   39.0881   32.0759 O   0  0  0  0  0  0  0  0  0  0  0  0
   10.6043   38.1893   31.6659 C   0  0  0  0  0  0  0  0  0  0  0  0
   12.9395   37.6813   32.0280 C   0  0  0  0  0  0  0  0  0  0  0  0
    9.6353   38.0951   30.6499 O   0  0  0  0  0  0  0  0  0  0  0  0
   11.5804   37.0191   31.6934 C   0  0  0  0  0  0  0  0  0  0  0  0
   13.4851   37.2119   33.3244 N   0  0  0  0  0  0  0  0  0  0  0  0
   11.6118   36.3189   30.4673 O   0  0  0  0  0  0  0  0  0  0  0  0
   14.4801   36.3317   33.5732 C   0  0  0  0  0  0  0  0  0  0  0  0
   13.1139   37.6277   34.5692 C   0  0  0  0  0  0  0  0  0  0  0  0
   15.2076   35.6154   32.6744 N   0  0  0  0  0  0  0  0  0  0  0  0
   14.6756   36.2303   34.9186 C   0  0  0  0  0  0  0  0  0  0  0  0
   13.8215   37.0451   35.5786 N   0  0  0  0  0  0  0  0  0  0  0  0
   16.1642   34.7602   33.1551 C   0  0  0  0  0  0  0  0  0  0  0  0
   15.6526   35.3505   35.4134 C   0  0  0  0  0  0  0  0  0  0  0  0
   16.3795   34.6316   34.5045 N   0  0  0  0  0  0  0  0  0  0  0  0
   15.9001   35.1933   36.8093 N   0  0  0  0  0  0  0  0  0  0  0  0
    9.0120   45.4318   33.6710 H   0  0  0  0  0  0  0  0  0  0  0  0
   10.7261   46.9688   33.1213 H   0  0  0  0  0  0  0  0  0  0  0  0
   11.8908   45.7659   32.9475 H   0  0  0  0  0  0  0  0  0  0  0  0
    9.3427   43.8329   31.4757 H   0  0  0  0  0  0  0  0  0  0  0  0
   10.7238   44.8822   31.1557 H   0  0  0  0  0  0  0  0  0  0  0  0
    7.0105   44.7173   31.5846 H   0  0  0  0  0  0  0  0  0  0  0  0
   10.3459   47.1867   30.4113 H   0  0  0  0  0  0  0  0  0  0  0  0
    5.4666   46.2875   30.5280 H   0  0  0  0  0  0  0  0  0  0  0  0
    8.7941   48.7708   29.3452 H   0  0  0  0  0  0  0  0  0  0  0  0
    4.3040   48.1093   29.9248 H   0  0  0  0  0  0  0  0  0  0  0  0
    3.4141   47.4310   27.6384 H   0  0  0  0  0  0  0  0  0  0  0  0
    4.7574   46.4093   28.2501 H   0  0  0  0  0  0  0  0  0  0  0  0
    5.0865   47.6266   26.9798 H   0  0  0  0  0  0  0  0  0  0  0  0
    2.8650   49.8348   30.3702 H   0  0  0  0  0  0  0  0  0  0  0  0
    4.1936   52.3522   26.2744 H   0  0  0  0  0  0  0  0  0  0  0  0
    1.5342   54.3423   29.6773 H   0  0  0  0  0  0  0  0  0  0  0  0
    0.2613   53.4422   28.7232 H   0  0  0  0  0  0  0  0  0  0  0  0
    9.8216   40.7221   31.7647 H   0  0  0  0  0  0  0  0  0  0  0  0
   11.3808   41.5456   31.4686 H   0  0  0  0  0  0  0  0  0  0  0  0
   11.6986   39.5089   30.3499 H   0  0  0  0  0  0  0  0  0  0  0  0
   10.1109   38.2737   32.6630 H   0  0  0  0  0  0  0  0  0  0  0  0
   13.6783   37.4561   31.2271 H   0  0  0  0  0  0  0  0  0  0  0  0
    9.0020   37.3860   30.9348 H   0  0  0  0  0  0  0  0  0  0  0  0
   11.2808   36.3052   32.4921 H   0  0  0  0  0  0  0  0  0  0  0  0
   11.8817   36.9600   29.7584 H   0  0  0  0  0  0  0  0  0  0  0  0
   12.3303   38.3538   34.7446 H   0  0  0  0  0  0  0  0  0  0  0  0
   16.7563   34.1783   32.4624 H   0  0  0  0  0  0  0  0  0  0  0  0
   16.6348   34.5301   37.1418 H   0  0  0  0  0  0  0  0  0  0  0  0
   15.3532   35.7359   37.5142 H   0  0  0  0  0  0  0  0  0  0  0  0
  1  2  2  0
  1  3  1  0
  3  4  1  0
  4  5  1  0
  6  1  1  0
  7  6  1  0
  6  8  1  0
  8  9  1  0
  9 10  2  0
 11  9  1  0
 10 12  1  0
 13 11  2  0
 12 14  2  0
 14 13  1  0
 14 15  1  0
 15 16  1  0
 16 17  1  0
 16 18  1  0
 18 19  2  0
 20 18  1  0
 19 21  1  0
 22 20  2  0
 20 23  1  0
 21 24  1  0
 21 25  2  0
 25 22  1  0
 23 26  1  0
 23 27  2  0
 24 28  1  0
 25 29  1  0
 28 29  1  0
  4 30  2  0
  4 31  1  0
 32 31  1  0
 32 33  1  0
 33 34  1  0
 33 35  1  0
 34 36  1  0
 35 37  1  0
 35 38  1  0
 38 36  1  0
 36 39  1  0
 38 40  1  0
 41 39  1  0
 42 39  1  0
 43 41  2  0
 41 44  1  0
 45 42  2  0
 46 43  1  0
 44 47  2  0
 44 45  1  0
 48 46  2  0
 48 47  1  0
 47 49  1  0
  6 50  1  1
  7 51  1  0
  7 52  1  0
  8 53  1  0
  8 54  1  0
 10 55  1  0
 11 56  1  0
 12 57  1  0
 13 58  1  0
 16 59  1  1
 17 60  1  0
 17 61  1  0
 17 62  1  0
 19 63  1  0
 22 64  1  0
 28 65  1  0
 28 66  1  0
 32 67  1  0
 32 68  1  0
 33 69  1  0
 35 70  1  0
 36 71  1  0
 37 72  1  0
 38 73  1  0
 40 74  1  0
 42 75  1  0
 46 76  1  0
 49 77  1  0
 49 78  1  0
M  CHG  3   5  -1  23   1  26  -1
M  END
>  <EmbedRMS>  (333) 
0.0815585375915

$$$$

     RDKit          3D

 78 83  0  0  0  0  0  0  0  0999 V2000
   10.2804   43.7665   33.8250 C   0  0  0  0  0  0  0  0  0  0  0  0
   11.4111   43.5919   34.3667 O   0  0  0  0  0  0  0  0  0  0  0  0
    9.3619   42.7250   33.7346 O   0  0  0  0  0  0  0  0  0  0  0  0
    9.8900   41.2267   34.2944 P   0  0  0  0  0  0  0  0  0  0  0  0
   10.3728   41.4567   35.8838 O   0  0  0  0  0  0  0  0  0  0  0  0
    9.9459   45.0737   33.2112 C   0  0  1  0  0  0  0  0  0  0  0  0
   11.0265   46.0293   33.4709 N   0  0  0  0  0  0  0  0  0  0  0  0
    9.7540   44.8542   31.6949 C   0  0  0  0  0  0  0  0  0  0  0  0
    8.7957   45.8412   31.0849 C   0  0  0  0  0  0  0  0  0  0  0  0
    7.4090   45.5997   31.1008 C   0  0  0  0  0  0  0  0  0  0  0  0
    9.2824   46.9876   30.4390 C   0  0  0  0  0  0  0  0  0  0  0  0
    6.5261   46.4982   30.4858 C   0  0  0  0  0  0  0  0  0  0  0  0
    8.3997   47.8870   29.8302 C   0  0  0  0  0  0  0  0  0  0  0  0
    7.0182   47.6558   29.8484 C   0  0  0  0  0  0  0  0  0  0  0  0
    6.1788   48.5953   29.2273 O   0  0  0  0  0  0  0  0  0  0  0  0
    4.7490   48.5612   29.2400 C   0  0  2  0  0  0  0  0  0  0  0  0
    4.2236   49.6248   28.2776 C   0  0  0  0  0  0  0  0  0  0  0  0
    4.2209   48.8219   30.6410 C   0  0  0  0  0  0  0  0  0  0  0  0
    4.8194   49.8515   31.4082 C   0  0  0  0  0  0  0  0  0  0  0  0
    3.1804   48.0260   31.2262 C   0  0  0  0  0  0  0  0  0  0  0  0
    4.4031   50.0284   32.7208 C   0  0  0  0  0  0  0  0  0  0  0  0
    2.8103   48.2418   32.5728 C   0  0  0  0  0  0  0  0  0  0  0  0
    2.4867   47.0164   30.4767 N   0  0  0  0  0  0  0  0  0  0  0  0
    4.8520   50.9494   33.6476 O   0  0  0  0  0  0  0  0  0  0  0  0
    3.4452   49.2541   33.2802 C   0  0  0  0  0  0  0  0  0  0  0  0
    2.0762   45.8621   31.1028 O   0  0  0  0  0  0  0  0  0  0  0  0
    2.0484   47.2706   29.3361 O   0  0  0  0  0  0  0  0  0  0  0  0
    4.1273   50.7387   34.8672 C   0  0  0  0  0  0  0  0  0  0  0  0
    3.2393   49.6475   34.5886 O   0  0  0  0  0  0  0  0  0  0  0  0
    8.8127   40.1842   34.2128 O   0  0  0  0  0  0  0  0  0  0  0  0
   11.2414   40.7951   33.3705 O   0  0  0  0  0  0  0  0  0  0  0  0
   10.9178   40.6921   31.9983 C   0  0  0  0  0  0  0  0  0  0  0  0
   11.5175   39.3837   31.4423 C   0  0  0  0  0  0  0  0  0  0  0  0
   12.7507   39.0887   32.0753 O   0  0  0  0  0  0  0  0  0  0  0  0
   10.6027   38.1916   31.6659 C   0  0  0  0  0  0  0  0  0  0  0  0
   12.9384   37.6819   32.0278 C   0  0  0  0  0  0  0  0  0  0  0  0
    9.6371   38.0805   30.6471 O   0  0  0  0  0  0  0  0  0  0  0  0
   11.5780   37.0215   31.6935 C   0  0  0  0  0  0  0  0  0  0  0  0
   13.4844   37.2120   33.3242 N   0  0  0  0  0  0  0  0  0  0  0  0
   11.6095   36.3202   30.4679 O   0  0  0  0  0  0  0  0  0  0  0  0
   14.4797   36.3318   33.5730 C   0  0  0  0  0  0  0  0  0  0  0  0
   13.1135   37.6278   34.5691 C   0  0  0  0  0  0  0  0  0  0  0  0
   15.2073   35.6155   32.6742 N   0  0  0  0  0  0  0  0  0  0  0  0
   14.6754   36.2305   34.9184 C   0  0  0  0  0  0  0  0  0  0  0  0
   13.8213   37.0452   35.5785 N   0  0  0  0  0  0  0  0  0  0  0  0
   16.1640   34.7604   33.1549 C   0  0  0  0  0  0  0  0  0  0  0  0
   15.6524   35.3507   35.4132 C   0  0  0  0  0  0  0  0  0  0  0  0
   16.3794   34.6318   34.5044 N   0  0  0  0  0  0  0  0  0  0  0  0
   15.8999   35.1934   36.8091 N   0  0  0  0  0  0  0  0  0  0  0  0
    8.9994   45.4382   33.6721 H   0  0  0  0  0  0  0  0  0  0  0  0
   11.0499   46.2278   34.4983 H   0  0  0  0  0  0  0  0  0  0  0  0
   10.7762   46.9370   33.0160 H   0  0  0  0  0  0  0  0  0  0  0  0
   10.7412   44.9080   31.1837 H   0  0  0  0  0  0  0  0  0  0  0  0
    9.3647   43.8355   31.4711 H   0  0  0  0  0  0  0  0  0  0  0  0
    7.0150   44.7142   31.5844 H   0  0  0  0  0  0  0  0  0  0  0  0
   10.3463   47.1874   30.4045 H   0  0  0  0  0  0  0  0  0  0  0  0
    5.4686   46.2791   30.5126 H   0  0  0  0  0  0  0  0  0  0  0  0
    8.7916   48.7697   29.3409 H   0  0  0  0  0  0  0  0  0  0  0  0
    4.4254   47.5726   28.8547 H   0  0  0  0  0  0  0  0  0  0  0  0
    4.5795   50.6339   28.5769 H   0  0  0  0  0  0  0  0  0  0  0  0
    4.5869   49.4122   27.2498 H   0  0  0  0  0  0  0  0  0  0  0  0
    3.1129   49.6215   28.2664 H   0  0  0  0  0  0  0  0  0  0  0  0
    5.6024   50.4788   31.0009 H   0  0  0  0  0  0  0  0  0  0  0  0
    2.0336   47.6543   33.0452 H   0  0  0  0  0  0  0  0  0  0  0  0
    4.8251   50.4653   35.6862 H   0  0  0  0  0  0  0  0  0  0  0  0
    3.5467   51.6475   35.1307 H   0  0  0  0  0  0  0  0  0  0  0  0
   11.3949   41.5477   31.4741 H   0  0  0  0  0  0  0  0  0  0  0  0
    9.8290   40.7408   31.7625 H   0  0  0  0  0  0  0  0  0  0  0  0
   11.6982   39.5114   30.3500 H   0  0  0  0  0  0  0  0  0  0  0  0
   10.1117   38.2603   32.6661 H   0  0  0  0  0  0  0  0  0  0  0  0
   13.6767   37.4557   31.2267 H   0  0  0  0  0  0  0  0  0  0  0  0
    8.8960   38.6950   30.8873 H   0  0  0  0  0  0  0  0  0  0  0  0
   11.2792   36.3072   32.4922 H   0  0  0  0  0  0  0  0  0  0  0  0
   11.8828   36.9598   29.7589 H   0  0  0  0  0  0  0  0  0  0  0  0
   12.3300   38.3538   34.7446 H   0  0  0  0  0  0  0  0  0  0  0  0
   16.7562   34.1785   32.4622 H   0  0  0  0  0  0  0  0  0  0  0  0
   15.3531   35.7360   37.5140 H   0  0  0  0  0  0  0  0  0  0  0  0
   16.6347   34.5303   37.1416 H   0  0  0  0  0  0  0  0  0  0  0  0
  1  2  2  0
  1  3  1  0
  3  4  1  0
  4  5  1  0
  6  1  1  0
  7  6  1  0
  6  8  1  0
  8  9  1  0
  9 10  2  0
 11  9  1  0
 10 12  1  0
 13 11  2  0
 12 14  2  0
 14 13  1  0
 14 15  1  0
 15 16  1  0
 16 17  1  0
 16 18  1  0
 18 19  2  0
 20 18  1  0
 19 21  1  0
 22 20  2  0
 20 23  1  0
 21 24  1  0
 21 25  2  0
 25 22  1  0
 23 26  1  0
 23 27  2  0
 24 28  1  0
 25 29  1  0
 28 29  1  0
  4 30  2  0
  4 31  1  0
 32 31  1  0
 32 33  1  0
 33 34  1  0
 33 35  1  0
 34 36  1  0
 35 37  1  0
 35 38  1  0
 38 36  1  0
 36 39  1  0
 38 40  1  0
 41 39  1  0
 42 39  1  0
 43 41  2  0
 41 44  1  0
 45 42  2  0
 46 43  1  0
 44 47  2  0
 44 45  1  0
 48 46  2  0
 48 47  1  0
 47 49  1  0
  6 50  1  1
  7 51  1  0
  7 52  1  0
  8 53  1  0
  8 54  1  0
 10 55  1  0
 11 56  1  0
 12 57  1  0
 13 58  1  0
 16 59  1  6
 17 60  1  0
 17 61  1  0
 17 62  1  0
 19 63  1  0
 22 64  1  0
 28 65  1  0
 28 66  1  0
 32 67  1  0
 32 68  1  0
 33 69  1  0
 35 70  1  0
 36 71  1  0
 37 72  1  0
 38 73  1  0
 40 74  1  0
 42 75  1  0
 46 76  1  0
 49 77  1  0
 49 78  1  0
M  CHG  3   5  -1  23   1  26  -1
M  END
>  <EmbedRMS>  (334) 
0.0817917407393

$$$$

     RDKit          3D

 78 83  0  0  0  0  0  0  0  0999 V2000
   10.2836   43.7661   33.8257 C   0  0  0  0  0  0  0  0  0  0  0  0
   11.4103   43.5930   34.3754 O   0  0  0  0  0  0  0  0  0  0  0  0
    9.3641   42.7252   33.7347 O   0  0  0  0  0  0  0  0  0  0  0  0
    9.8908   41.2264   34.2939 P   0  0  0  0  0  0  0  0  0  0  0  0
   10.3732   41.4558   35.8836 O   0  0  0  0  0  0  0  0  0  0  0  0
    9.9547   45.0694   33.2037 C   0  0  1  0  0  0  0  0  0  0  0  0
   11.0274   46.0321   33.4757 N   0  0  0  0  0  0  0  0  0  0  0  0
    9.7466   44.8480   31.6878 C   0  0  0  0  0  0  0  0  0  0  0  0
    8.7923   45.8409   31.0848 C   0  0  0  0  0  0  0  0  0  0  0  0
    7.4058   45.6014   31.0988 C   0  0  0  0  0  0  0  0  0  0  0  0
    9.2821   46.9874   30.4422 C   0  0  0  0  0  0  0  0  0  0  0  0
    6.5272   46.5027   30.4832 C   0  0  0  0  0  0  0  0  0  0  0  0
    8.4034   47.8896   29.8307 C   0  0  0  0  0  0  0  0  0  0  0  0
    7.0132   47.6543   29.8485 C   0  0  0  0  0  0  0  0  0  0  0  0
    6.0825   48.5191   29.2486 O   0  0  0  0  0  0  0  0  0  0  0  0
    6.3725   49.7901   28.6579 C   0  0  2  0  0  0  0  0  0  0  0  0
    6.6492   50.8291   29.7505 C   0  0  0  0  0  0  0  0  0  0  0  0
    5.1862   50.2320   27.8216 C   0  0  0  0  0  0  0  0  0  0  0  0
    3.8835   50.0665   28.3547 C   0  0  0  0  0  0  0  0  0  0  0  0
    5.3385   50.7752   26.5012 C   0  0  0  0  0  0  0  0  0  0  0  0
    2.7937   50.3995   27.5613 C   0  0  0  0  0  0  0  0  0  0  0  0
    4.1905   51.0786   25.7345 C   0  0  0  0  0  0  0  0  0  0  0  0
    6.6310   51.0455   25.9362 N   0  0  0  0  0  0  0  0  0  0  0  0
    1.4493   50.3102   27.8673 O   0  0  0  0  0  0  0  0  0  0  0  0
    2.9405   50.8784   26.3049 C   0  0  0  0  0  0  0  0  0  0  0  0
    6.8362   50.8710   24.5870 O   0  0  0  0  0  0  0  0  0  0  0  0
    7.4909   51.6597   26.6005 O   0  0  0  0  0  0  0  0  0  0  0  0
    0.7055   50.7636   26.7280 C   0  0  0  0  0  0  0  0  0  0  0  0
    1.6964   51.1171   25.7534 O   0  0  0  0  0  0  0  0  0  0  0  0
    8.8127   40.1847   34.2122 O   0  0  0  0  0  0  0  0  0  0  0  0
   11.2421   40.7941   33.3697 O   0  0  0  0  0  0  0  0  0  0  0  0
   10.9187   40.6911   31.9971 C   0  0  0  0  0  0  0  0  0  0  0  0
   11.5172   39.3815   31.4407 C   0  0  0  0  0  0  0  0  0  0  0  0
   12.7493   39.0856   32.0728 O   0  0  0  0  0  0  0  0  0  0  0  0
   10.6023   38.1908   31.6665 C   0  0  0  0  0  0  0  0  0  0  0  0
   12.9319   37.6781   32.0281 C   0  0  0  0  0  0  0  0  0  0  0  0
    9.6392   38.0798   30.6452 O   0  0  0  0  0  0  0  0  0  0  0  0
   11.5715   37.0166   31.7056 C   0  0  0  0  0  0  0  0  0  0  0  0
   13.4847   37.2121   33.3235 N   0  0  0  0  0  0  0  0  0  0  0  0
   11.6187   36.3384   30.4695 O   0  0  0  0  0  0  0  0  0  0  0  0
   14.4801   36.3321   33.5724 C   0  0  0  0  0  0  0  0  0  0  0  0
   13.1137   37.6276   34.5687 C   0  0  0  0  0  0  0  0  0  0  0  0
   15.2073   35.6153   32.6738 N   0  0  0  0  0  0  0  0  0  0  0  0
   14.6759   36.2308   34.9179 C   0  0  0  0  0  0  0  0  0  0  0  0
   13.8216   37.0452   35.5781 N   0  0  0  0  0  0  0  0  0  0  0  0
   16.1640   34.7601   33.1546 C   0  0  0  0  0  0  0  0  0  0  0  0
   15.6526   35.3508   35.4129 C   0  0  0  0  0  0  0  0  0  0  0  0
   16.3794   34.6317   34.5041 N   0  0  0  0  0  0  0  0  0  0  0  0
   15.8999   35.1934   36.8088 N   0  0  0  0  0  0  0  0  0  0  0  0
    9.0121   45.4316   33.6716 H   0  0  0  0  0  0  0  0  0  0  0  0
   10.7259   46.9687   33.1214 H   0  0  0  0  0  0  0  0  0  0  0  0
   11.8906   45.7658   32.9470 H   0  0  0  0  0  0  0  0  0  0  0  0
    9.3414   43.8329   31.4764 H   0  0  0  0  0  0  0  0  0  0  0  0
   10.7229   44.8814   31.1558 H   0  0  0  0  0  0  0  0  0  0  0  0
    7.0086   44.7163   31.5804 H   0  0  0  0  0  0  0  0  0  0  0  0
   10.3469   47.1833   30.4101 H   0  0  0  0  0  0  0  0  0  0  0  0
    5.4627   46.3056   30.5008 H   0  0  0  0  0  0  0  0  0  0  0  0
    8.8220   48.7581   29.3438 H   0  0  0  0  0  0  0  0  0  0  0  0
    7.2652   49.6816   28.0112 H   0  0  0  0  0  0  0  0  0  0  0  0
    5.7844   50.9036   30.4437 H   0  0  0  0  0  0  0  0  0  0  0  0
    7.5454   50.5477   30.3398 H   0  0  0  0  0  0  0  0  0  0  0  0
    6.8329   51.8258   29.2961 H   0  0  0  0  0  0  0  0  0  0  0  0
    3.7248   49.6733   29.3510 H   0  0  0  0  0  0  0  0  0  0  0  0
    4.2716   51.4851   24.7347 H   0  0  0  0  0  0  0  0  0  0  0  0
    0.0970   51.6528   26.9958 H   0  0  0  0  0  0  0  0  0  0  0  0
    0.0609   49.9471   26.3404 H   0  0  0  0  0  0  0  0  0  0  0  0
    9.8299   40.7410   31.7613 H   0  0  0  0  0  0  0  0  0  0  0  0
   11.3968   41.5460   31.4729 H   0  0  0  0  0  0  0  0  0  0  0  0
   11.6975   39.5067   30.3481 H   0  0  0  0  0  0  0  0  0  0  0  0
   10.1077   38.2648   32.6645 H   0  0  0  0  0  0  0  0  0  0  0  0
   13.6621   37.4467   31.2209 H   0  0  0  0  0  0  0  0  0  0  0  0
    8.8974   38.6944   30.8831 H   0  0  0  0  0  0  0  0  0  0  0  0
   11.2806   36.3073   32.5170 H   0  0  0  0  0  0  0  0  0  0  0  0
   10.8492   35.7110   30.4586 H   0  0  0  0  0  0  0  0  0  0  0  0
   12.3290   38.3524   34.7444 H   0  0  0  0  0  0  0  0  0  0  0  0
   16.7559   34.1780   32.4619 H   0  0  0  0  0  0  0  0  0  0  0  0
   15.3531   35.7362   37.5137 H   0  0  0  0  0  0  0  0  0  0  0  0
   16.6344   34.5301   37.1414 H   0  0  0  0  0  0  0  0  0  0  0  0
  1  2  2  0
  1  3  1  0
  3  4  1  0
  4  5  1  0
  6  1  1  0
  7  6  1  0
  6  8  1  0
  8  9  1  0
  9 10  2  0
 11  9  1  0
 10 12  1  0
 13 11  2  0
 12 14  2  0
 14 13  1  0
 14 15  1  0
 15 16  1  0
 16 17  1  0
 16 18  1  0
 18 19  2  0
 20 18  1  0
 19 21  1  0
 22 20  2  0
 20 23  1  0
 21 24  1  0
 21 25  2  0
 25 22  1  0
 23 26  1  0
 23 27  2  0
 24 28  1  0
 25 29  1  0
 28 29  1  0
  4 30  2  0
  4 31  1  0
 32 31  1  0
 32 33  1  0
 33 34  1  0
 33 35  1  0
 34 36  1  0
 35 37  1  0
 35 38  1  0
 38 36  1  0
 36 39  1  0
 38 40  1  0
 41 39  1  0
 42 39  1  0
 43 41  2  0
 41 44  1  0
 45 42  2  0
 46 43  1  0
 44 47  2  0
 44 45  1  0
 48 46  2  0
 48 47  1  0
 47 49  1  0
  6 50  1  1
  7 51  1  0
  7 52  1  0
  8 53  1  0
  8 54  1  0
 10 55  1  0
 11 56  1  0
 12 57  1  0
 13 58  1  0
 16 59  1  6
 17 60  1  0
 17 61  1  0
 17 62  1  0
 19 63  1  0
 22 64  1  0
 28 65  1  0
 28 66  1  0
 32 67  1  0
 32 68  1  0
 33 69  1  0
 35 70  1  0
 36 71  1  0
 37 72  1  0
 38 73  1  0
 40 74  1  0
 42 75  1  0
 46 76  1  0
 49 77  1  0
 49 78  1  0
M  CHG  3   5  -1  23   1  26  -1
M  END
>  <EmbedRMS>  (335) 
0.0829303483485

$$$$

     RDKit          3D

 78 83  0  0  0  0  0  0  0  0999 V2000
   10.2837   43.7664   33.8247 C   0  0  0  0  0  0  0  0  0  0  0  0
   11.4095   43.5961   34.3768 O   0  0  0  0  0  0  0  0  0  0  0  0
    9.3638   42.7257   33.7369 O   0  0  0  0  0  0  0  0  0  0  0  0
    9.8901   41.2267   34.2962 P   0  0  0  0  0  0  0  0  0  0  0  0
   10.3694   41.4498   35.8876 O   0  0  0  0  0  0  0  0  0  0  0  0
    9.9538   45.0680   33.2024 C   0  0  1  0  0  0  0  0  0  0  0  0
   11.0238   46.0330   33.4760 N   0  0  0  0  0  0  0  0  0  0  0  0
    9.7484   44.8483   31.6861 C   0  0  0  0  0  0  0  0  0  0  0  0
    8.7932   45.8399   31.0843 C   0  0  0  0  0  0  0  0  0  0  0  0
    7.4057   45.6033   31.1050 C   0  0  0  0  0  0  0  0  0  0  0  0
    9.2837   46.9808   30.4343 C   0  0  0  0  0  0  0  0  0  0  0  0
    6.5280   46.5115   30.4985 C   0  0  0  0  0  0  0  0  0  0  0  0
    8.4054   47.8802   29.8199 C   0  0  0  0  0  0  0  0  0  0  0  0
    7.0170   47.6535   29.8501 C   0  0  0  0  0  0  0  0  0  0  0  0
    6.0884   48.5397   29.2805 O   0  0  0  0  0  0  0  0  0  0  0  0
    6.2307   49.2353   28.0343 C   0  0  2  0  0  0  0  0  0  0  0  0
    6.4208   48.2179   26.8944 C   0  0  0  0  0  0  0  0  0  0  0  0
    7.2736   50.3520   28.1150 C   0  0  0  0  0  0  0  0  0  0  0  0
    8.3162   50.4494   27.1485 C   0  0  0  0  0  0  0  0  0  0  0  0
    7.2404   51.3060   29.1907 C   0  0  0  0  0  0  0  0  0  0  0  0
    9.2764   51.4406   27.2967 C   0  0  0  0  0  0  0  0  0  0  0  0
    8.2586   52.2834   29.2963 C   0  0  0  0  0  0  0  0  0  0  0  0
    6.2103   51.2806   30.1944 N   0  0  0  0  0  0  0  0  0  0  0  0
   10.3658   51.7078   26.4856 O   0  0  0  0  0  0  0  0  0  0  0  0
    9.2538   52.3139   28.3290 C   0  0  0  0  0  0  0  0  0  0  0  0
    6.5134   51.6379   31.4913 O   0  0  0  0  0  0  0  0  0  0  0  0
    5.0070   51.1709   29.8689 O   0  0  0  0  0  0  0  0  0  0  0  0
   11.0718   52.8246   27.0482 C   0  0  0  0  0  0  0  0  0  0  0  0
   10.3295   53.1775   28.2273 O   0  0  0  0  0  0  0  0  0  0  0  0
    8.8121   40.1853   34.2119 O   0  0  0  0  0  0  0  0  0  0  0  0
   11.2403   40.7962   33.3703 O   0  0  0  0  0  0  0  0  0  0  0  0
   10.9142   40.6918   31.9975 C   0  0  0  0  0  0  0  0  0  0  0  0
   11.5266   39.3912   31.4377 C   0  0  0  0  0  0  0  0  0  0  0  0
   12.7504   39.0917   32.0850 O   0  0  0  0  0  0  0  0  0  0  0  0
   10.6125   38.1927   31.6450 C   0  0  0  0  0  0  0  0  0  0  0  0
   12.9412   37.6844   32.0288 C   0  0  0  0  0  0  0  0  0  0  0  0
    9.6057   38.0884   30.6617 O   0  0  0  0  0  0  0  0  0  0  0  0
   11.5834   37.0190   31.6857 C   0  0  0  0  0  0  0  0  0  0  0  0
   13.4834   37.2100   33.3241 N   0  0  0  0  0  0  0  0  0  0  0  0
   11.6198   36.3074   30.4662 O   0  0  0  0  0  0  0  0  0  0  0  0
   14.4783   36.3300   33.5723 C   0  0  0  0  0  0  0  0  0  0  0  0
   13.1143   37.6269   34.5691 C   0  0  0  0  0  0  0  0  0  0  0  0
   15.2074   35.6157   32.6733 N   0  0  0  0  0  0  0  0  0  0  0  0
   14.6738   36.2288   34.9182 C   0  0  0  0  0  0  0  0  0  0  0  0
   13.8210   37.0441   35.5784 N   0  0  0  0  0  0  0  0  0  0  0  0
   16.1668   34.7647   33.1561 C   0  0  0  0  0  0  0  0  0  0  0  0
   15.6511   35.3506   35.4143 C   0  0  0  0  0  0  0  0  0  0  0  0
   16.3804   34.6355   34.5055 N   0  0  0  0  0  0  0  0  0  0  0  0
   15.8989   35.1944   36.8111 N   0  0  0  0  0  0  0  0  0  0  0  0
    9.0095   45.4255   33.6718 H   0  0  0  0  0  0  0  0  0  0  0  0
   11.8923   45.7680   32.9538 H   0  0  0  0  0  0  0  0  0  0  0  0
   10.7165   46.9668   33.1182 H   0  0  0  0  0  0  0  0  0  0  0  0
   10.7265   44.8807   31.1553 H   0  0  0  0  0  0  0  0  0  0  0  0
    9.3439   43.8350   31.4711 H   0  0  0  0  0  0  0  0  0  0  0  0
    7.0074   44.7195   31.5891 H   0  0  0  0  0  0  0  0  0  0  0  0
   10.3491   47.1742   30.4003 H   0  0  0  0  0  0  0  0  0  0  0  0
    5.4626   46.3244   30.5267 H   0  0  0  0  0  0  0  0  0  0  0  0
    8.8210   48.7541   29.3507 H   0  0  0  0  0  0  0  0  0  0  0  0
    5.2574   49.7283   27.8268 H   0  0  0  0  0  0  0  0  0  0  0  0
    5.6143   47.4522   26.9408 H   0  0  0  0  0  0  0  0  0  0  0  0
    7.3986   47.6994   26.9860 H   0  0  0  0  0  0  0  0  0  0  0  0
    6.3521   48.7191   25.9067 H   0  0  0  0  0  0  0  0  0  0  0  0
    8.4071   49.7731   26.3099 H   0  0  0  0  0  0  0  0  0  0  0  0
    8.2631   53.0078   30.1016 H   0  0  0  0  0  0  0  0  0  0  0  0
   11.0829   53.6776   26.3342 H   0  0  0  0  0  0  0  0  0  0  0  0
   12.1086   52.5279   27.3207 H   0  0  0  0  0  0  0  0  0  0  0  0
   11.3778   41.5535   31.4715 H   0  0  0  0  0  0  0  0  0  0  0  0
    9.8234   40.7217   31.7632 H   0  0  0  0  0  0  0  0  0  0  0  0
   11.7334   39.5351   30.3511 H   0  0  0  0  0  0  0  0  0  0  0  0
   10.1253   38.2668   32.6434 H   0  0  0  0  0  0  0  0  0  0  0  0
   13.6852   37.4665   31.2317 H   0  0  0  0  0  0  0  0  0  0  0  0
   10.0244   38.1747   29.7668 H   0  0  0  0  0  0  0  0  0  0  0  0
   11.2774   36.3116   32.4881 H   0  0  0  0  0  0  0  0  0  0  0  0
   11.9797   36.9129   29.7662 H   0  0  0  0  0  0  0  0  0  0  0  0
   12.3334   38.3538   34.7455 H   0  0  0  0  0  0  0  0  0  0  0  0
   16.7617   34.1836   32.4675 H   0  0  0  0  0  0  0  0  0  0  0  0
   16.6328   34.5330   37.1501 H   0  0  0  0  0  0  0  0  0  0  0  0
   15.3519   35.7378   37.5151 H   0  0  0  0  0  0  0  0  0  0  0  0
  1  2  2  0
  1  3  1  0
  3  4  1  0
  4  5  1  0
  6  1  1  0
  7  6  1  0
  6  8  1  0
  8  9  1  0
  9 10  2  0
 11  9  1  0
 10 12  1  0
 13 11  2  0
 12 14  2  0
 14 13  1  0
 14 15  1  0
 15 16  1  0
 16 17  1  0
 16 18  1  0
 18 19  2  0
 20 18  1  0
 19 21  1  0
 22 20  2  0
 20 23  1  0
 21 24  1  0
 21 25  2  0
 25 22  1  0
 23 26  1  0
 23 27  2  0
 24 28  1  0
 25 29  1  0
 28 29  1  0
  4 30  2  0
  4 31  1  0
 32 31  1  0
 32 33  1  0
 33 34  1  0
 33 35  1  0
 34 36  1  0
 35 37  1  0
 35 38  1  0
 38 36  1  0
 36 39  1  0
 38 40  1  0
 41 39  1  0
 42 39  1  0
 43 41  2  0
 41 44  1  0
 45 42  2  0
 46 43  1  0
 44 47  2  0
 44 45  1  0
 48 46  2  0
 48 47  1  0
 47 49  1  0
  6 50  1  1
  7 51  1  0
  7 52  1  0
  8 53  1  0
  8 54  1  0
 10 55  1  0
 11 56  1  0
 12 57  1  0
 13 58  1  0
 16 59  1  6
 17 60  1  0
 17 61  1  0
 17 62  1  0
 19 63  1  0
 22 64  1  0
 28 65  1  0
 28 66  1  0
 32 67  1  0
 32 68  1  0
 33 69  1  0
 35 70  1  0
 36 71  1  0
 37 72  1  0
 38 73  1  0
 40 74  1  0
 42 75  1  0
 46 76  1  0
 49 77  1  0
 49 78  1  0
M  CHG  3   5  -1  23   1  26  -1
M  END
>  <EmbedRMS>  (336) 
0.0816570303825

$$$$

     RDKit          3D

 78 83  0  0  0  0  0  0  0  0999 V2000
   10.2837   43.7627   33.8277 C   0  0  0  0  0  0  0  0  0  0  0  0
   11.4103   43.5863   34.3766 O   0  0  0  0  0  0  0  0  0  0  0  0
    9.3628   42.7238   33.7357 O   0  0  0  0  0  0  0  0  0  0  0  0
    9.8893   41.2251   34.2943 P   0  0  0  0  0  0  0  0  0  0  0  0
   10.3731   41.4545   35.8837 O   0  0  0  0  0  0  0  0  0  0  0  0
    9.9548   45.0700   33.2063 C   0  0  1  0  0  0  0  0  0  0  0  0
   11.0199   46.0480   33.4567 N   0  0  0  0  0  0  0  0  0  0  0  0
    9.7500   44.8508   31.6923 C   0  0  0  0  0  0  0  0  0  0  0  0
    8.7942   45.8418   31.0870 C   0  0  0  0  0  0  0  0  0  0  0  0
    7.4073   45.6013   31.1004 C   0  0  0  0  0  0  0  0  0  0  0  0
    9.2832   46.9892   30.4451 C   0  0  0  0  0  0  0  0  0  0  0  0
    6.5279   46.5022   30.4846 C   0  0  0  0  0  0  0  0  0  0  0  0
    8.4038   47.8902   29.8331 C   0  0  0  0  0  0  0  0  0  0  0  0
    7.0148   47.6508   29.8462 C   0  0  0  0  0  0  0  0  0  0  0  0
    6.0893   48.5143   29.2367 O   0  0  0  0  0  0  0  0  0  0  0  0
    6.4215   49.6836   28.4847 C   0  0  2  0  0  0  0  0  0  0  0  0
    5.1591   50.4995   28.2086 C   0  0  0  0  0  0  0  0  0  0  0  0
    7.1379   49.3496   27.1841 C   0  0  0  0  0  0  0  0  0  0  0  0
    8.1104   50.2718   26.7271 C   0  0  0  0  0  0  0  0  0  0  0  0
    6.9140   48.1409   26.4356 C   0  0  0  0  0  0  0  0  0  0  0  0
    8.8365   49.9642   25.5847 C   0  0  0  0  0  0  0  0  0  0  0  0
    7.6973   47.8765   25.2894 C   0  0  0  0  0  0  0  0  0  0  0  0
    5.9256   47.1721   26.8182 N   0  0  0  0  0  0  0  0  0  0  0  0
    9.8289   50.7052   24.9723 O   0  0  0  0  0  0  0  0  0  0  0  0
    8.6417   48.8155   24.8988 C   0  0  0  0  0  0  0  0  0  0  0  0
    6.1971   45.8305   26.6797 O   0  0  0  0  0  0  0  0  0  0  0  0
    4.7545   47.5261   27.0610 O   0  0  0  0  0  0  0  0  0  0  0  0
   10.2850   49.9722   23.8271 C   0  0  0  0  0  0  0  0  0  0  0  0
    9.5004   48.7718   23.8173 O   0  0  0  0  0  0  0  0  0  0  0  0
    8.8113   40.1835   34.2130 O   0  0  0  0  0  0  0  0  0  0  0  0
   11.2397   40.7943   33.3684 O   0  0  0  0  0  0  0  0  0  0  0  0
   10.9125   40.6875   31.9969 C   0  0  0  0  0  0  0  0  0  0  0  0
   11.5169   39.3810   31.4420 C   0  0  0  0  0  0  0  0  0  0  0  0
   12.7500   39.0880   32.0758 O   0  0  0  0  0  0  0  0  0  0  0  0
   10.6043   38.1892   31.6658 C   0  0  0  0  0  0  0  0  0  0  0  0
   12.9395   37.6813   32.0279 C   0  0  0  0  0  0  0  0  0  0  0  0
    9.6353   38.0951   30.6499 O   0  0  0  0  0  0  0  0  0  0  0  0
   11.5804   37.0190   31.6934 C   0  0  0  0  0  0  0  0  0  0  0  0
   13.4851   37.2118   33.3244 N   0  0  0  0  0  0  0  0  0  0  0  0
   11.6118   36.3188   30.4673 O   0  0  0  0  0  0  0  0  0  0  0  0
   14.4801   36.3316   33.5732 C   0  0  0  0  0  0  0  0  0  0  0  0
   13.1139   37.6277   34.5692 C   0  0  0  0  0  0  0  0  0  0  0  0
   15.2076   35.6154   32.6744 N   0  0  0  0  0  0  0  0  0  0  0  0
   14.6756   36.2303   34.9186 C   0  0  0  0  0  0  0  0  0  0  0  0
   13.8215   37.0451   35.5786 N   0  0  0  0  0  0  0  0  0  0  0  0
   16.1642   34.7602   33.1551 C   0  0  0  0  0  0  0  0  0  0  0  0
   15.6526   35.3505   35.4134 C   0  0  0  0  0  0  0  0  0  0  0  0
   16.3796   34.6316   34.5045 N   0  0  0  0  0  0  0  0  0  0  0  0
   15.9001   35.1933   36.8093 N   0  0  0  0  0  0  0  0  0  0  0  0
    9.0099   45.4350   33.6671 H   0  0  0  0  0  0  0  0  0  0  0  0
   11.9348   45.6931   33.0922 H   0  0  0  0  0  0  0  0  0  0  0  0
   11.1136   46.1992   34.4880 H   0  0  0  0  0  0  0  0  0  0  0  0
   10.7302   44.8921   31.1674 H   0  0  0  0  0  0  0  0  0  0  0  0
    9.3506   43.8343   31.4763 H   0  0  0  0  0  0  0  0  0  0  0  0
    7.0107   44.7159   31.5819 H   0  0  0  0  0  0  0  0  0  0  0  0
   10.3476   47.1881   30.4167 H   0  0  0  0  0  0  0  0  0  0  0  0
    5.4638   46.3036   30.4990 H   0  0  0  0  0  0  0  0  0  0  0  0
    8.8173   48.7648   29.3515 H   0  0  0  0  0  0  0  0  0  0  0  0
    7.0746   50.3231   29.1204 H   0  0  0  0  0  0  0  0  0  0  0  0
    4.4575   49.9516   27.5487 H   0  0  0  0  0  0  0  0  0  0  0  0
    5.4268   51.4608   27.7198 H   0  0  0  0  0  0  0  0  0  0  0  0
    4.6427   50.7261   29.1654 H   0  0  0  0  0  0  0  0  0  0  0  0
    8.3061   51.1959   27.2566 H   0  0  0  0  0  0  0  0  0  0  0  0
    7.5592   46.9730   24.7095 H   0  0  0  0  0  0  0  0  0  0  0  0
   11.3621   49.7252   23.9333 H   0  0  0  0  0  0  0  0  0  0  0  0
   10.1038   50.5560   22.9003 H   0  0  0  0  0  0  0  0  0  0  0  0
   11.3811   41.5456   31.4692 H   0  0  0  0  0  0  0  0  0  0  0  0
    9.8216   40.7223   31.7644 H   0  0  0  0  0  0  0  0  0  0  0  0
   11.6986   39.5089   30.3498 H   0  0  0  0  0  0  0  0  0  0  0  0
   10.1109   38.2736   32.6629 H   0  0  0  0  0  0  0  0  0  0  0  0
   13.6783   37.4561   31.2271 H   0  0  0  0  0  0  0  0  0  0  0  0
    9.0020   37.3859   30.9347 H   0  0  0  0  0  0  0  0  0  0  0  0
   11.2807   36.3052   32.4921 H   0  0  0  0  0  0  0  0  0  0  0  0
   11.8818   36.9600   29.7583 H   0  0  0  0  0  0  0  0  0  0  0  0
   12.3303   38.3538   34.7445 H   0  0  0  0  0  0  0  0  0  0  0  0
   16.7563   34.1783   32.4624 H   0  0  0  0  0  0  0  0  0  0  0  0
   15.3532   35.7359   37.5142 H   0  0  0  0  0  0  0  0  0  0  0  0
   16.6347   34.5302   37.1418 H   0  0  0  0  0  0  0  0  0  0  0  0
  1  2  2  0
  1  3  1  0
  3  4  1  0
  4  5  1  0
  6  1  1  0
  7  6  1  0
  6  8  1  0
  8  9  1  0
  9 10  2  0
 11  9  1  0
 10 12  1  0
 13 11  2  0
 12 14  2  0
 14 13  1  0
 14 15  1  0
 15 16  1  0
 16 17  1  0
 16 18  1  0
 18 19  2  0
 20 18  1  0
 19 21  1  0
 22 20  2  0
 20 23  1  0
 21 24  1  0
 21 25  2  0
 25 22  1  0
 23 26  1  0
 23 27  2  0
 24 28  1  0
 25 29  1  0
 28 29  1  0
  4 30  2  0
  4 31  1  0
 32 31  1  0
 32 33  1  0
 33 34  1  0
 33 35  1  0
 34 36  1  0
 35 37  1  0
 35 38  1  0
 38 36  1  0
 36 39  1  0
 38 40  1  0
 41 39  1  0
 42 39  1  0
 43 41  2  0
 41 44  1  0
 45 42  2  0
 46 43  1  0
 44 47  2  0
 44 45  1  0
 48 46  2  0
 48 47  1  0
 47 49  1  0
  6 50  1  1
  7 51  1  0
  7 52  1  0
  8 53  1  0
  8 54  1  0
 10 55  1  0
 11 56  1  0
 12 57  1  0
 13 58  1  0
 16 59  1  1
 17 60  1  0
 17 61  1  0
 17 62  1  0
 19 63  1  0
 22 64  1  0
 28 65  1  0
 28 66  1  0
 32 67  1  0
 32 68  1  0
 33 69  1  0
 35 70  1  0
 36 71  1  0
 37 72  1  0
 38 73  1  0
 40 74  1  0
 42 75  1  0
 46 76  1  0
 49 77  1  0
 49 78  1  0
M  CHG  3   5  -1  23   1  26  -1
M  END
>  <EmbedRMS>  (337) 
0.0824786110916

$$$$

     RDKit          3D

 78 83  0  0  0  0  0  0  0  0999 V2000
   10.2836   43.7661   33.8256 C   0  0  0  0  0  0  0  0  0  0  0  0
   11.4102   43.5930   34.3753 O   0  0  0  0  0  0  0  0  0  0  0  0
    9.3639   42.7253   33.7347 O   0  0  0  0  0  0  0  0  0  0  0  0
    9.8906   41.2265   34.2938 P   0  0  0  0  0  0  0  0  0  0  0  0
   10.3732   41.4558   35.8835 O   0  0  0  0  0  0  0  0  0  0  0  0
    9.9548   45.0694   33.2035 C   0  0  1  0  0  0  0  0  0  0  0  0
   11.0274   46.0322   33.4760 N   0  0  0  0  0  0  0  0  0  0  0  0
    9.7473   44.8483   31.6875 C   0  0  0  0  0  0  0  0  0  0  0  0
    8.7928   45.8410   31.0846 C   0  0  0  0  0  0  0  0  0  0  0  0
    7.4066   45.6014   31.0992 C   0  0  0  0  0  0  0  0  0  0  0  0
    9.2816   46.9876   30.4425 C   0  0  0  0  0  0  0  0  0  0  0  0
    6.5250   46.5012   30.4850 C   0  0  0  0  0  0  0  0  0  0  0  0
    8.4000   47.8871   29.8327 C   0  0  0  0  0  0  0  0  0  0  0  0
    7.0173   47.6576   29.8448 C   0  0  0  0  0  0  0  0  0  0  0  0
    6.1937   48.5995   29.2008 O   0  0  0  0  0  0  0  0  0  0  0  0
    4.7630   48.5913   29.1021 C   0  0  2  0  0  0  0  0  0  0  0  0
    4.1386   48.9239   30.4666 C   0  0  0  0  0  0  0  0  0  0  0  0
    4.2526   47.3281   28.4060 C   0  0  0  0  0  0  0  0  0  0  0  0
    3.2069   46.5523   28.9777 C   0  0  0  0  0  0  0  0  0  0  0  0
    4.8422   46.8873   27.1698 C   0  0  0  0  0  0  0  0  0  0  0  0
    2.8254   45.3770   28.3451 C   0  0  0  0  0  0  0  0  0  0  0  0
    4.4200   45.6730   26.5835 C   0  0  0  0  0  0  0  0  0  0  0  0
    5.8702   47.6423   26.5059 N   0  0  0  0  0  0  0  0  0  0  0  0
    1.8544   44.4724   28.7298 O   0  0  0  0  0  0  0  0  0  0  0  0
    3.4091   44.9535   27.2024 C   0  0  0  0  0  0  0  0  0  0  0  0
    6.8632   46.9863   25.8154 O   0  0  0  0  0  0  0  0  0  0  0  0
    5.7674   48.8794   26.3791 O   0  0  0  0  0  0  0  0  0  0  0  0
    1.8290   43.4128   27.7638 C   0  0  0  0  0  0  0  0  0  0  0  0
    2.8374   43.7600   26.8054 O   0  0  0  0  0  0  0  0  0  0  0  0
    8.8126   40.1848   34.2122 O   0  0  0  0  0  0  0  0  0  0  0  0
   11.2417   40.7943   33.3694 O   0  0  0  0  0  0  0  0  0  0  0  0
   10.9179   40.6904   31.9970 C   0  0  0  0  0  0  0  0  0  0  0  0
   11.5181   39.3814   31.4408 C   0  0  0  0  0  0  0  0  0  0  0  0
   12.7497   39.0870   32.0746 O   0  0  0  0  0  0  0  0  0  0  0  0
   10.6045   38.1892   31.6655 C   0  0  0  0  0  0  0  0  0  0  0  0
   12.9344   37.6801   32.0290 C   0  0  0  0  0  0  0  0  0  0  0  0
    9.6418   38.0758   30.6441 O   0  0  0  0  0  0  0  0  0  0  0  0
   11.5741   37.0170   31.7045 C   0  0  0  0  0  0  0  0  0  0  0  0
   13.4851   37.2125   33.3241 N   0  0  0  0  0  0  0  0  0  0  0  0
   11.6078   36.3407   30.4680 O   0  0  0  0  0  0  0  0  0  0  0  0
   14.4801   36.3321   33.5727 C   0  0  0  0  0  0  0  0  0  0  0  0
   13.1140   37.6277   34.5693 C   0  0  0  0  0  0  0  0  0  0  0  0
   15.2073   35.6155   32.6739 N   0  0  0  0  0  0  0  0  0  0  0  0
   14.6758   36.2306   34.9182 C   0  0  0  0  0  0  0  0  0  0  0  0
   13.8217   37.0450   35.5785 N   0  0  0  0  0  0  0  0  0  0  0  0
   16.1639   34.7602   33.1546 C   0  0  0  0  0  0  0  0  0  0  0  0
   15.6526   35.3506   35.4130 C   0  0  0  0  0  0  0  0  0  0  0  0
   16.3794   34.6316   34.5041 N   0  0  0  0  0  0  0  0  0  0  0  0
   15.9000   35.1933   36.8089 N   0  0  0  0  0  0  0  0  0  0  0  0
    9.0121   45.4316   33.6712 H   0  0  0  0  0  0  0  0  0  0  0  0
   10.7260   46.9687   33.1215 H   0  0  0  0  0  0  0  0  0  0  0  0
   11.8908   45.7659   32.9476 H   0  0  0  0  0  0  0  0  0  0  0  0
   10.7237   44.8823   31.1558 H   0  0  0  0  0  0  0  0  0  0  0  0
    9.3426   43.8331   31.4757 H   0  0  0  0  0  0  0  0  0  0  0  0
    7.0111   44.7154   31.5807 H   0  0  0  0  0  0  0  0  0  0  0  0
   10.3458   47.1859   30.4100 H   0  0  0  0  0  0  0  0  0  0  0  0
    5.4725   46.2752   30.5165 H   0  0  0  0  0  0  0  0  0  0  0  0
    8.7946   48.7673   29.3411 H   0  0  0  0  0  0  0  0  0  0  0  0
    4.4822   49.4419   28.4459 H   0  0  0  0  0  0  0  0  0  0  0  0
    4.2956   48.1113   31.2033 H   0  0  0  0  0  0  0  0  0  0  0  0
    3.0499   49.1145   30.3557 H   0  0  0  0  0  0  0  0  0  0  0  0
    4.6035   49.8483   30.8701 H   0  0  0  0  0  0  0  0  0  0  0  0
    2.7099   46.8280   29.8960 H   0  0  0  0  0  0  0  0  0  0  0  0
    4.8533   45.3120   25.6597 H   0  0  0  0  0  0  0  0  0  0  0  0
    0.8344   43.3642   27.2731 H   0  0  0  0  0  0  0  0  0  0  0  0
    2.0777   42.4454   28.2483 H   0  0  0  0  0  0  0  0  0  0  0  0
    9.8290   40.7385   31.7617 H   0  0  0  0  0  0  0  0  0  0  0  0
   11.3945   41.5459   31.4722 H   0  0  0  0  0  0  0  0  0  0  0  0
   11.6994   39.5069   30.3484 H   0  0  0  0  0  0  0  0  0  0  0  0
   10.1090   38.2635   32.6632 H   0  0  0  0  0  0  0  0  0  0  0  0
   13.6662   37.4515   31.2224 H   0  0  0  0  0  0  0  0  0  0  0  0
    8.9010   38.6926   30.8792 H   0  0  0  0  0  0  0  0  0  0  0  0
   11.2650   36.3083   32.5087 H   0  0  0  0  0  0  0  0  0  0  0  0
   12.1372   35.5140   30.6163 H   0  0  0  0  0  0  0  0  0  0  0  0
   12.3297   38.3529   34.7450 H   0  0  0  0  0  0  0  0  0  0  0  0
   16.7558   34.1781   32.4618 H   0  0  0  0  0  0  0  0  0  0  0  0
   16.6346   34.5300   37.1414 H   0  0  0  0  0  0  0  0  0  0  0  0
   15.3533   35.7360   37.5138 H   0  0  0  0  0  0  0  0  0  0  0  0
  1  2  2  0
  1  3  1  0
  3  4  1  0
  4  5  1  0
  6  1  1  0
  7  6  1  0
  6  8  1  0
  8  9  1  0
  9 10  2  0
 11  9  1  0
 10 12  1  0
 13 11  2  0
 12 14  2  0
 14 13  1  0
 14 15  1  0
 15 16  1  0
 16 17  1  0
 16 18  1  0
 18 19  2  0
 20 18  1  0
 19 21  1  0
 22 20  2  0
 20 23  1  0
 21 24  1  0
 21 25  2  0
 25 22  1  0
 23 26  1  0
 23 27  2  0
 24 28  1  0
 25 29  1  0
 28 29  1  0
  4 30  2  0
  4 31  1  0
 32 31  1  0
 32 33  1  0
 33 34  1  0
 33 35  1  0
 34 36  1  0
 35 37  1  0
 35 38  1  0
 38 36  1  0
 36 39  1  0
 38 40  1  0
 41 39  1  0
 42 39  1  0
 43 41  2  0
 41 44  1  0
 45 42  2  0
 46 43  1  0
 44 47  2  0
 44 45  1  0
 48 46  2  0
 48 47  1  0
 47 49  1  0
  6 50  1  1
  7 51  1  0
  7 52  1  0
  8 53  1  0
  8 54  1  0
 10 55  1  0
 11 56  1  0
 12 57  1  0
 13 58  1  0
 16 59  1  6
 17 60  1  0
 17 61  1  0
 17 62  1  0
 19 63  1  0
 22 64  1  0
 28 65  1  0
 28 66  1  0
 32 67  1  0
 32 68  1  0
 33 69  1  0
 35 70  1  0
 36 71  1  0
 37 72  1  0
 38 73  1  0
 40 74  1  0
 42 75  1  0
 46 76  1  0
 49 77  1  0
 49 78  1  0
M  CHG  3   5  -1  23   1  26  -1
M  END
>  <EmbedRMS>  (338) 
0.0828108822145

$$$$

     RDKit          3D

 78 83  0  0  0  0  0  0  0  0999 V2000
   10.2838   43.7627   33.8278 C   0  0  0  0  0  0  0  0  0  0  0  0
   11.4103   43.5863   34.3767 O   0  0  0  0  0  0  0  0  0  0  0  0
    9.3628   42.7238   33.7358 O   0  0  0  0  0  0  0  0  0  0  0  0
    9.8891   41.2251   34.2949 P   0  0  0  0  0  0  0  0  0  0  0  0
   10.3724   41.4548   35.8843 O   0  0  0  0  0  0  0  0  0  0  0  0
    9.9548   45.0700   33.2065 C   0  0  1  0  0  0  0  0  0  0  0  0
   11.0199   46.0480   33.4569 N   0  0  0  0  0  0  0  0  0  0  0  0
    9.7500   44.8508   31.6925 C   0  0  0  0  0  0  0  0  0  0  0  0
    8.7941   45.8418   31.0873 C   0  0  0  0  0  0  0  0  0  0  0  0
    7.4077   45.6010   31.1000 C   0  0  0  0  0  0  0  0  0  0  0  0
    9.2830   46.9888   30.4449 C   0  0  0  0  0  0  0  0  0  0  0  0
    6.5285   46.5016   30.4837 C   0  0  0  0  0  0  0  0  0  0  0  0
    8.4039   47.8897   29.8318 C   0  0  0  0  0  0  0  0  0  0  0  0
    7.0139   47.6528   29.8478 C   0  0  0  0  0  0  0  0  0  0  0  0
    6.0823   48.5138   29.2436 O   0  0  0  0  0  0  0  0  0  0  0  0
    6.3747   49.7609   28.6061 C   0  0  2  0  0  0  0  0  0  0  0  0
    6.6304   50.8281   29.6821 C   0  0  0  0  0  0  0  0  0  0  0  0
    5.2365   50.0835   27.6387 C   0  0  0  0  0  0  0  0  0  0  0  0
    4.4914   51.2917   27.7449 C   0  0  0  0  0  0  0  0  0  0  0  0
    4.8695   49.1369   26.6176 C   0  0  0  0  0  0  0  0  0  0  0  0
    3.4312   51.5023   26.8737 C   0  0  0  0  0  0  0  0  0  0  0  0
    3.7693   49.4042   25.7721 C   0  0  0  0  0  0  0  0  0  0  0  0
    5.5776   47.8978   26.4378 N   0  0  0  0  0  0  0  0  0  0  0  0
    2.5817   52.5900   26.8045 O   0  0  0  0  0  0  0  0  0  0  0  0
    3.0837   50.5983   25.9320 C   0  0  0  0  0  0  0  0  0  0  0  0
    4.8914   46.7690   26.0528 O   0  0  0  0  0  0  0  0  0  0  0  0
    6.8250   47.8741   26.4253 O   0  0  0  0  0  0  0  0  0  0  0  0
    1.6410   52.3506   25.7491 C   0  0  0  0  0  0  0  0  0  0  0  0
    1.9975   51.0671   25.2183 O   0  0  0  0  0  0  0  0  0  0  0  0
    8.8112   40.1834   34.2132 O   0  0  0  0  0  0  0  0  0  0  0  0
   11.2398   40.7938   33.3702 O   0  0  0  0  0  0  0  0  0  0  0  0
   10.9144   40.6912   31.9983 C   0  0  0  0  0  0  0  0  0  0  0  0
   11.5270   39.3911   31.4385 C   0  0  0  0  0  0  0  0  0  0  0  0
   12.7520   39.0911   32.0835 O   0  0  0  0  0  0  0  0  0  0  0  0
   10.6113   38.1931   31.6451 C   0  0  0  0  0  0  0  0  0  0  0  0
   12.9413   37.6837   32.0297 C   0  0  0  0  0  0  0  0  0  0  0  0
    9.6064   38.0877   30.6599 O   0  0  0  0  0  0  0  0  0  0  0  0
   11.5822   37.0197   31.6876 C   0  0  0  0  0  0  0  0  0  0  0  0
   13.4840   37.2104   33.3254 N   0  0  0  0  0  0  0  0  0  0  0  0
   11.6179   36.3071   30.4690 O   0  0  0  0  0  0  0  0  0  0  0  0
   14.4797   36.3309   33.5738 C   0  0  0  0  0  0  0  0  0  0  0  0
   13.1136   37.6269   34.5702 C   0  0  0  0  0  0  0  0  0  0  0  0
   15.2074   35.6152   32.6747 N   0  0  0  0  0  0  0  0  0  0  0  0
   14.6756   36.2298   34.9190 C   0  0  0  0  0  0  0  0  0  0  0  0
   13.8217   37.0445   35.5793 N   0  0  0  0  0  0  0  0  0  0  0  0
   16.1643   34.7603   33.1551 C   0  0  0  0  0  0  0  0  0  0  0  0
   15.6528   35.3503   35.4136 C   0  0  0  0  0  0  0  0  0  0  0  0
   16.3798   34.6316   34.5046 N   0  0  0  0  0  0  0  0  0  0  0  0
   15.9004   35.1930   36.8094 N   0  0  0  0  0  0  0  0  0  0  0  0
    9.0099   45.4350   33.6673 H   0  0  0  0  0  0  0  0  0  0  0  0
   11.1136   46.1992   34.4881 H   0  0  0  0  0  0  0  0  0  0  0  0
   11.9348   45.6932   33.0924 H   0  0  0  0  0  0  0  0  0  0  0  0
   10.7303   44.8921   31.1676 H   0  0  0  0  0  0  0  0  0  0  0  0
    9.3507   43.8343   31.4765 H   0  0  0  0  0  0  0  0  0  0  0  0
    7.0110   44.7155   31.5813 H   0  0  0  0  0  0  0  0  0  0  0  0
   10.3475   47.1870   30.4158 H   0  0  0  0  0  0  0  0  0  0  0  0
    5.4644   46.3029   30.4995 H   0  0  0  0  0  0  0  0  0  0  0  0
    8.8225   48.7598   29.3482 H   0  0  0  0  0  0  0  0  0  0  0  0
    7.2983   49.6794   27.9977 H   0  0  0  0  0  0  0  0  0  0  0  0
    6.9114   51.7941   29.2115 H   0  0  0  0  0  0  0  0  0  0  0  0
    5.7307   50.9613   30.3200 H   0  0  0  0  0  0  0  0  0  0  0  0
    7.4696   50.5213   30.3393 H   0  0  0  0  0  0  0  0  0  0  0  0
    4.7055   52.0524   28.4807 H   0  0  0  0  0  0  0  0  0  0  0  0
    3.4685   48.7070   25.0007 H   0  0  0  0  0  0  0  0  0  0  0  0
    0.6077   52.3243   26.1541 H   0  0  0  0  0  0  0  0  0  0  0  0
    1.7374   53.1300   24.9644 H   0  0  0  0  0  0  0  0  0  0  0  0
   11.3780   41.5548   31.4751 H   0  0  0  0  0  0  0  0  0  0  0  0
    9.8235   40.7202   31.7651 H   0  0  0  0  0  0  0  0  0  0  0  0
   11.7311   39.5363   30.3531 H   0  0  0  0  0  0  0  0  0  0  0  0
   10.1203   38.2695   32.6410 H   0  0  0  0  0  0  0  0  0  0  0  0
   13.6850   37.4638   31.2321 H   0  0  0  0  0  0  0  0  0  0  0  0
   10.0251   38.1792   29.7654 H   0  0  0  0  0  0  0  0  0  0  0  0
   11.2757   36.3135   32.4907 H   0  0  0  0  0  0  0  0  0  0  0  0
   11.9838   36.9111   29.7708 H   0  0  0  0  0  0  0  0  0  0  0  0
   12.3307   38.3536   34.7457 H   0  0  0  0  0  0  0  0  0  0  0  0
   16.7566   34.1787   32.4623 H   0  0  0  0  0  0  0  0  0  0  0  0
   15.3535   35.7355   37.5144 H   0  0  0  0  0  0  0  0  0  0  0  0
   16.6353   34.5301   37.1419 H   0  0  0  0  0  0  0  0  0  0  0  0
  1  2  2  0
  1  3  1  0
  3  4  1  0
  4  5  1  0
  6  1  1  0
  7  6  1  0
  6  8  1  0
  8  9  1  0
  9 10  2  0
 11  9  1  0
 10 12  1  0
 13 11  2  0
 12 14  2  0
 14 13  1  0
 14 15  1  0
 15 16  1  0
 16 17  1  0
 16 18  1  0
 18 19  2  0
 20 18  1  0
 19 21  1  0
 22 20  2  0
 20 23  1  0
 21 24  1  0
 21 25  2  0
 25 22  1  0
 23 26  1  0
 23 27  2  0
 24 28  1  0
 25 29  1  0
 28 29  1  0
  4 30  2  0
  4 31  1  0
 32 31  1  0
 32 33  1  0
 33 34  1  0
 33 35  1  0
 34 36  1  0
 35 37  1  0
 35 38  1  0
 38 36  1  0
 36 39  1  0
 38 40  1  0
 41 39  1  0
 42 39  1  0
 43 41  2  0
 41 44  1  0
 45 42  2  0
 46 43  1  0
 44 47  2  0
 44 45  1  0
 48 46  2  0
 48 47  1  0
 47 49  1  0
  6 50  1  1
  7 51  1  0
  7 52  1  0
  8 53  1  0
  8 54  1  0
 10 55  1  0
 11 56  1  0
 12 57  1  0
 13 58  1  0
 16 59  1  6
 17 60  1  0
 17 61  1  0
 17 62  1  0
 19 63  1  0
 22 64  1  0
 28 65  1  0
 28 66  1  0
 32 67  1  0
 32 68  1  0
 33 69  1  0
 35 70  1  0
 36 71  1  0
 37 72  1  0
 38 73  1  0
 40 74  1  0
 42 75  1  0
 46 76  1  0
 49 77  1  0
 49 78  1  0
M  CHG  3   5  -1  23   1  26  -1
M  END
>  <EmbedRMS>  (339) 
0.081730284126

$$$$

     RDKit          3D

 78 83  0  0  0  0  0  0  0  0999 V2000
   10.2837   43.7628   33.8278 C   0  0  0  0  0  0  0  0  0  0  0  0
   11.4103   43.5864   34.3767 O   0  0  0  0  0  0  0  0  0  0  0  0
    9.3628   42.7238   33.7358 O   0  0  0  0  0  0  0  0  0  0  0  0
    9.8891   41.2252   34.2949 P   0  0  0  0  0  0  0  0  0  0  0  0
   10.3724   41.4548   35.8843 O   0  0  0  0  0  0  0  0  0  0  0  0
    9.9548   45.0700   33.2064 C   0  0  1  0  0  0  0  0  0  0  0  0
   11.0198   46.0482   33.4568 N   0  0  0  0  0  0  0  0  0  0  0  0
    9.7502   44.8506   31.6924 C   0  0  0  0  0  0  0  0  0  0  0  0
    8.7943   45.8413   31.0868 C   0  0  0  0  0  0  0  0  0  0  0  0
    7.4081   45.6008   31.0997 C   0  0  0  0  0  0  0  0  0  0  0  0
    9.2826   46.9883   30.4451 C   0  0  0  0  0  0  0  0  0  0  0  0
    6.5293   46.5021   30.4843 C   0  0  0  0  0  0  0  0  0  0  0  0
    8.4035   47.8894   29.8328 C   0  0  0  0  0  0  0  0  0  0  0  0
    7.0134   47.6534   29.8469 C   0  0  0  0  0  0  0  0  0  0  0  0
    6.0720   48.5202   29.2616 O   0  0  0  0  0  0  0  0  0  0  0  0
    6.3267   49.7355   28.5442 C   0  0  2  0  0  0  0  0  0  0  0  0
    6.9379   49.4177   27.1701 C   0  0  0  0  0  0  0  0  0  0  0  0
    7.0753   50.7538   29.4060 C   0  0  0  0  0  0  0  0  0  0  0  0
    8.2285   51.4218   28.9100 C   0  0  0  0  0  0  0  0  0  0  0  0
    6.6392   51.0336   30.7472 C   0  0  0  0  0  0  0  0  0  0  0  0
    8.9134   52.2863   29.7531 C   0  0  0  0  0  0  0  0  0  0  0  0
    7.3887   51.9136   31.5612 C   0  0  0  0  0  0  0  0  0  0  0  0
    5.4551   50.4315   31.2975 N   0  0  0  0  0  0  0  0  0  0  0  0
   10.0535   53.0200   29.4864 O   0  0  0  0  0  0  0  0  0  0  0  0
    8.5147   52.5180   31.0231 C   0  0  0  0  0  0  0  0  0  0  0  0
    4.2889   50.3931   30.5695 O   0  0  0  0  0  0  0  0  0  0  0  0
    5.4215   50.1094   32.5032 O   0  0  0  0  0  0  0  0  0  0  0  0
   10.3902   53.7597   30.6679 C   0  0  0  0  0  0  0  0  0  0  0  0
    9.3812   53.4101   31.6249 O   0  0  0  0  0  0  0  0  0  0  0  0
    8.8113   40.1834   34.2132 O   0  0  0  0  0  0  0  0  0  0  0  0
   11.2398   40.7938   33.3702 O   0  0  0  0  0  0  0  0  0  0  0  0
   10.9144   40.6912   31.9983 C   0  0  0  0  0  0  0  0  0  0  0  0
   11.5270   39.3911   31.4385 C   0  0  0  0  0  0  0  0  0  0  0  0
   12.7520   39.0911   32.0836 O   0  0  0  0  0  0  0  0  0  0  0  0
   10.6114   38.1931   31.6451 C   0  0  0  0  0  0  0  0  0  0  0  0
   12.9413   37.6837   32.0297 C   0  0  0  0  0  0  0  0  0  0  0  0
    9.6064   38.0877   30.6599 O   0  0  0  0  0  0  0  0  0  0  0  0
   11.5822   37.0197   31.6876 C   0  0  0  0  0  0  0  0  0  0  0  0
   13.4840   37.2104   33.3254 N   0  0  0  0  0  0  0  0  0  0  0  0
   11.6179   36.3071   30.4690 O   0  0  0  0  0  0  0  0  0  0  0  0
   14.4797   36.3309   33.5738 C   0  0  0  0  0  0  0  0  0  0  0  0
   13.1136   37.6269   34.5702 C   0  0  0  0  0  0  0  0  0  0  0  0
   15.2074   35.6152   32.6747 N   0  0  0  0  0  0  0  0  0  0  0  0
   14.6756   36.2298   34.9190 C   0  0  0  0  0  0  0  0  0  0  0  0
   13.8217   37.0445   35.5793 N   0  0  0  0  0  0  0  0  0  0  0  0
   16.1643   34.7603   33.1551 C   0  0  0  0  0  0  0  0  0  0  0  0
   15.6528   35.3503   35.4136 C   0  0  0  0  0  0  0  0  0  0  0  0
   16.3798   34.6316   34.5046 N   0  0  0  0  0  0  0  0  0  0  0  0
   15.9004   35.1930   36.8094 N   0  0  0  0  0  0  0  0  0  0  0  0
    9.0098   45.4350   33.6670 H   0  0  0  0  0  0  0  0  0  0  0  0
   11.1133   46.1995   34.4881 H   0  0  0  0  0  0  0  0  0  0  0  0
   11.9348   45.6933   33.0925 H   0  0  0  0  0  0  0  0  0  0  0  0
   10.7305   44.8921   31.1676 H   0  0  0  0  0  0  0  0  0  0  0  0
    9.3511   43.8340   31.4764 H   0  0  0  0  0  0  0  0  0  0  0  0
    7.0111   44.7161   31.5821 H   0  0  0  0  0  0  0  0  0  0  0  0
   10.3469   47.1878   30.4177 H   0  0  0  0  0  0  0  0  0  0  0  0
    5.4648   46.3055   30.5048 H   0  0  0  0  0  0  0  0  0  0  0  0
    8.8251   48.7599   29.3590 H   0  0  0  0  0  0  0  0  0  0  0  0
    5.3383   50.1877   28.3182 H   0  0  0  0  0  0  0  0  0  0  0  0
    6.9472   50.3275   26.5329 H   0  0  0  0  0  0  0  0  0  0  0  0
    6.3163   48.6534   26.6572 H   0  0  0  0  0  0  0  0  0  0  0  0
    7.9684   49.0202   27.2570 H   0  0  0  0  0  0  0  0  0  0  0  0
    8.6066   51.2701   27.9097 H   0  0  0  0  0  0  0  0  0  0  0  0
    7.0890   52.1348   32.5776 H   0  0  0  0  0  0  0  0  0  0  0  0
   11.3916   53.4563   31.0387 H   0  0  0  0  0  0  0  0  0  0  0  0
   10.3601   54.8499   30.4602 H   0  0  0  0  0  0  0  0  0  0  0  0
   11.3780   41.5548   31.4750 H   0  0  0  0  0  0  0  0  0  0  0  0
    9.8235   40.7202   31.7651 H   0  0  0  0  0  0  0  0  0  0  0  0
   11.7311   39.5363   30.3532 H   0  0  0  0  0  0  0  0  0  0  0  0
   10.1203   38.2695   32.6410 H   0  0  0  0  0  0  0  0  0  0  0  0
   13.6850   37.4638   31.2321 H   0  0  0  0  0  0  0  0  0  0  0  0
   10.0251   38.1792   29.7654 H   0  0  0  0  0  0  0  0  0  0  0  0
   11.2757   36.3135   32.4907 H   0  0  0  0  0  0  0  0  0  0  0  0
   11.9838   36.9111   29.7708 H   0  0  0  0  0  0  0  0  0  0  0  0
   12.3307   38.3536   34.7457 H   0  0  0  0  0  0  0  0  0  0  0  0
   16.7566   34.1787   32.4623 H   0  0  0  0  0  0  0  0  0  0  0  0
   15.3535   35.7355   37.5144 H   0  0  0  0  0  0  0  0  0  0  0  0
   16.6353   34.5301   37.1419 H   0  0  0  0  0  0  0  0  0  0  0  0
  1  2  2  0
  1  3  1  0
  3  4  1  0
  4  5  1  0
  6  1  1  0
  7  6  1  0
  6  8  1  0
  8  9  1  0
  9 10  2  0
 11  9  1  0
 10 12  1  0
 13 11  2  0
 12 14  2  0
 14 13  1  0
 14 15  1  0
 15 16  1  0
 16 17  1  0
 16 18  1  0
 18 19  2  0
 20 18  1  0
 19 21  1  0
 22 20  2  0
 20 23  1  0
 21 24  1  0
 21 25  2  0
 25 22  1  0
 23 26  1  0
 23 27  2  0
 24 28  1  0
 25 29  1  0
 28 29  1  0
  4 30  2  0
  4 31  1  0
 32 31  1  0
 32 33  1  0
 33 34  1  0
 33 35  1  0
 34 36  1  0
 35 37  1  0
 35 38  1  0
 38 36  1  0
 36 39  1  0
 38 40  1  0
 41 39  1  0
 42 39  1  0
 43 41  2  0
 41 44  1  0
 45 42  2  0
 46 43  1  0
 44 47  2  0
 44 45  1  0
 48 46  2  0
 48 47  1  0
 47 49  1  0
  6 50  1  1
  7 51  1  0
  7 52  1  0
  8 53  1  0
  8 54  1  0
 10 55  1  0
 11 56  1  0
 12 57  1  0
 13 58  1  0
 16 59  1  6
 17 60  1  0
 17 61  1  0
 17 62  1  0
 19 63  1  0
 22 64  1  0
 28 65  1  0
 28 66  1  0
 32 67  1  0
 32 68  1  0
 33 69  1  0
 35 70  1  0
 36 71  1  0
 37 72  1  0
 38 73  1  0
 40 74  1  0
 42 75  1  0
 46 76  1  0
 49 77  1  0
 49 78  1  0
M  CHG  3   5  -1  23   1  26  -1
M  END
>  <EmbedRMS>  (340) 
0.081737861632

$$$$

     RDKit          3D

 78 83  0  0  0  0  0  0  0  0999 V2000
   10.2837   43.7628   33.8278 C   0  0  0  0  0  0  0  0  0  0  0  0
   11.4103   43.5864   34.3767 O   0  0  0  0  0  0  0  0  0  0  0  0
    9.3628   42.7238   33.7358 O   0  0  0  0  0  0  0  0  0  0  0  0
    9.8893   41.2251   34.2943 P   0  0  0  0  0  0  0  0  0  0  0  0
   10.3731   41.4545   35.8837 O   0  0  0  0  0  0  0  0  0  0  0  0
    9.9548   45.0700   33.2064 C   0  0  1  0  0  0  0  0  0  0  0  0
   11.0198   46.0482   33.4568 N   0  0  0  0  0  0  0  0  0  0  0  0
    9.7502   44.8506   31.6925 C   0  0  0  0  0  0  0  0  0  0  0  0
    8.7942   45.8413   31.0868 C   0  0  0  0  0  0  0  0  0  0  0  0
    7.4080   45.6008   31.0997 C   0  0  0  0  0  0  0  0  0  0  0  0
    9.2826   46.9883   30.4450 C   0  0  0  0  0  0  0  0  0  0  0  0
    6.5293   46.5022   30.4843 C   0  0  0  0  0  0  0  0  0  0  0  0
    8.4035   47.8894   29.8328 C   0  0  0  0  0  0  0  0  0  0  0  0
    7.0134   47.6534   29.8470 C   0  0  0  0  0  0  0  0  0  0  0  0
    6.0721   48.5203   29.2617 O   0  0  0  0  0  0  0  0  0  0  0  0
    6.3268   49.7358   28.5445 C   0  0  2  0  0  0  0  0  0  0  0  0
    6.9378   49.4182   27.1703 C   0  0  0  0  0  0  0  0  0  0  0  0
    7.0756   50.7538   29.4065 C   0  0  0  0  0  0  0  0  0  0  0  0
    8.2289   51.4217   28.9106 C   0  0  0  0  0  0  0  0  0  0  0  0
    6.6396   51.0334   30.7477 C   0  0  0  0  0  0  0  0  0  0  0  0
    8.9140   52.2859   29.7538 C   0  0  0  0  0  0  0  0  0  0  0  0
    7.3893   51.9132   31.5619 C   0  0  0  0  0  0  0  0  0  0  0  0
    5.4554   50.4313   31.2980 N   0  0  0  0  0  0  0  0  0  0  0  0
   10.0542   53.0195   29.4873 O   0  0  0  0  0  0  0  0  0  0  0  0
    8.5153   52.5174   31.0239 C   0  0  0  0  0  0  0  0  0  0  0  0
    4.2891   50.3933   30.5701 O   0  0  0  0  0  0  0  0  0  0  0  0
    5.4220   50.1089   32.5036 O   0  0  0  0  0  0  0  0  0  0  0  0
   10.3910   53.7589   30.6689 C   0  0  0  0  0  0  0  0  0  0  0  0
    9.3819   53.4093   31.6259 O   0  0  0  0  0  0  0  0  0  0  0  0
    8.8113   40.1835   34.2130 O   0  0  0  0  0  0  0  0  0  0  0  0
   11.2397   40.7943   33.3684 O   0  0  0  0  0  0  0  0  0  0  0  0
   10.9125   40.6875   31.9969 C   0  0  0  0  0  0  0  0  0  0  0  0
   11.5169   39.3810   31.4420 C   0  0  0  0  0  0  0  0  0  0  0  0
   12.7500   39.0880   32.0758 O   0  0  0  0  0  0  0  0  0  0  0  0
   10.6043   38.1892   31.6658 C   0  0  0  0  0  0  0  0  0  0  0  0
   12.9395   37.6813   32.0279 C   0  0  0  0  0  0  0  0  0  0  0  0
    9.6353   38.0951   30.6499 O   0  0  0  0  0  0  0  0  0  0  0  0
   11.5804   37.0190   31.6934 C   0  0  0  0  0  0  0  0  0  0  0  0
   13.4851   37.2119   33.3244 N   0  0  0  0  0  0  0  0  0  0  0  0
   11.6118   36.3188   30.4673 O   0  0  0  0  0  0  0  0  0  0  0  0
   14.4801   36.3316   33.5732 C   0  0  0  0  0  0  0  0  0  0  0  0
   13.1139   37.6277   34.5692 C   0  0  0  0  0  0  0  0  0  0  0  0
   15.2076   35.6154   32.6744 N   0  0  0  0  0  0  0  0  0  0  0  0
   14.6756   36.2303   34.9186 C   0  0  0  0  0  0  0  0  0  0  0  0
   13.8215   37.0451   35.5786 N   0  0  0  0  0  0  0  0  0  0  0  0
   16.1643   34.7602   33.1551 C   0  0  0  0  0  0  0  0  0  0  0  0
   15.6526   35.3505   35.4134 C   0  0  0  0  0  0  0  0  0  0  0  0
   16.3796   34.6316   34.5046 N   0  0  0  0  0  0  0  0  0  0  0  0
   15.9000   35.1933   36.8093 N   0  0  0  0  0  0  0  0  0  0  0  0
    9.0098   45.4351   33.6670 H   0  0  0  0  0  0  0  0  0  0  0  0
   11.9348   45.6933   33.0925 H   0  0  0  0  0  0  0  0  0  0  0  0
   11.1133   46.1996   34.4880 H   0  0  0  0  0  0  0  0  0  0  0  0
    9.3510   43.8340   31.4765 H   0  0  0  0  0  0  0  0  0  0  0  0
   10.7305   44.8920   31.1676 H   0  0  0  0  0  0  0  0  0  0  0  0
    7.0110   44.7161   31.5822 H   0  0  0  0  0  0  0  0  0  0  0  0
   10.3469   47.1878   30.4177 H   0  0  0  0  0  0  0  0  0  0  0  0
    5.4648   46.3056   30.5049 H   0  0  0  0  0  0  0  0  0  0  0  0
    8.8252   48.7598   29.3589 H   0  0  0  0  0  0  0  0  0  0  0  0
    5.3385   50.1881   28.3187 H   0  0  0  0  0  0  0  0  0  0  0  0
    6.9473   50.3282   26.5333 H   0  0  0  0  0  0  0  0  0  0  0  0
    7.9683   49.0204   27.2571 H   0  0  0  0  0  0  0  0  0  0  0  0
    6.3161   48.6541   26.6572 H   0  0  0  0  0  0  0  0  0  0  0  0
    8.6069   51.2701   27.9103 H   0  0  0  0  0  0  0  0  0  0  0  0
    7.0896   52.1342   32.5783 H   0  0  0  0  0  0  0  0  0  0  0  0
   11.3924   53.4553   31.0396 H   0  0  0  0  0  0  0  0  0  0  0  0
   10.3610   54.8491   30.4614 H   0  0  0  0  0  0  0  0  0  0  0  0
    9.8216   40.7222   31.7644 H   0  0  0  0  0  0  0  0  0  0  0  0
   11.3811   41.5456   31.4692 H   0  0  0  0  0  0  0  0  0  0  0  0
   11.6985   39.5089   30.3498 H   0  0  0  0  0  0  0  0  0  0  0  0
   10.1109   38.2736   32.6630 H   0  0  0  0  0  0  0  0  0  0  0  0
   13.6783   37.4561   31.2271 H   0  0  0  0  0  0  0  0  0  0  0  0
    9.0020   37.3859   30.9347 H   0  0  0  0  0  0  0  0  0  0  0  0
   11.2808   36.3052   32.4921 H   0  0  0  0  0  0  0  0  0  0  0  0
   11.8818   36.9599   29.7583 H   0  0  0  0  0  0  0  0  0  0  0  0
   12.3303   38.3538   34.7445 H   0  0  0  0  0  0  0  0  0  0  0  0
   16.7564   34.1783   32.4624 H   0  0  0  0  0  0  0  0  0  0  0  0
   15.3532   35.7360   37.5142 H   0  0  0  0  0  0  0  0  0  0  0  0
   16.6347   34.5302   37.1419 H   0  0  0  0  0  0  0  0  0  0  0  0
  1  2  2  0
  1  3  1  0
  3  4  1  0
  4  5  1  0
  6  1  1  0
  7  6  1  0
  6  8  1  0
  8  9  1  0
  9 10  2  0
 11  9  1  0
 10 12  1  0
 13 11  2  0
 12 14  2  0
 14 13  1  0
 14 15  1  0
 15 16  1  0
 16 17  1  0
 16 18  1  0
 18 19  2  0
 20 18  1  0
 19 21  1  0
 22 20  2  0
 20 23  1  0
 21 24  1  0
 21 25  2  0
 25 22  1  0
 23 26  1  0
 23 27  2  0
 24 28  1  0
 25 29  1  0
 28 29  1  0
  4 30  2  0
  4 31  1  0
 32 31  1  0
 32 33  1  0
 33 34  1  0
 33 35  1  0
 34 36  1  0
 35 37  1  0
 35 38  1  0
 38 36  1  0
 36 39  1  0
 38 40  1  0
 41 39  1  0
 42 39  1  0
 43 41  2  0
 41 44  1  0
 45 42  2  0
 46 43  1  0
 44 47  2  0
 44 45  1  0
 48 46  2  0
 48 47  1  0
 47 49  1  0
  6 50  1  1
  7 51  1  0
  7 52  1  0
  8 53  1  0
  8 54  1  0
 10 55  1  0
 11 56  1  0
 12 57  1  0
 13 58  1  0
 16 59  1  6
 17 60  1  0
 17 61  1  0
 17 62  1  0
 19 63  1  0
 22 64  1  0
 28 65  1  0
 28 66  1  0
 32 67  1  0
 32 68  1  0
 33 69  1  0
 35 70  1  0
 36 71  1  0
 37 72  1  0
 38 73  1  0
 40 74  1  0
 42 75  1  0
 46 76  1  0
 49 77  1  0
 49 78  1  0
M  CHG  3   5  -1  23   1  26  -1
M  END
>  <EmbedRMS>  (341) 
0.0824655322663

$$$$

     RDKit          3D

 78 83  0  0  0  0  0  0  0  0999 V2000
   10.2834   43.7663   33.8257 C   0  0  0  0  0  0  0  0  0  0  0  0
   11.4102   43.5930   34.3752 O   0  0  0  0  0  0  0  0  0  0  0  0
    9.3635   42.7257   33.7352 O   0  0  0  0  0  0  0  0  0  0  0  0
    9.8899   41.2270   34.2947 P   0  0  0  0  0  0  0  0  0  0  0  0
   10.3732   41.4563   35.8841 O   0  0  0  0  0  0  0  0  0  0  0  0
    9.9547   45.0696   33.2035 C   0  0  1  0  0  0  0  0  0  0  0  0
   11.0273   46.0323   33.4759 N   0  0  0  0  0  0  0  0  0  0  0  0
    9.7471   44.8484   31.6875 C   0  0  0  0  0  0  0  0  0  0  0  0
    8.7926   45.8408   31.0843 C   0  0  0  0  0  0  0  0  0  0  0  0
    7.4059   45.6008   31.0992 C   0  0  0  0  0  0  0  0  0  0  0  0
    9.2817   46.9877   30.4415 C   0  0  0  0  0  0  0  0  0  0  0  0
    6.5247   46.5008   30.4846 C   0  0  0  0  0  0  0  0  0  0  0  0
    8.4004   47.8880   29.8319 C   0  0  0  0  0  0  0  0  0  0  0  0
    7.0186   47.6571   29.8473 C   0  0  0  0  0  0  0  0  0  0  0  0
    6.1809   48.5969   29.2246 O   0  0  0  0  0  0  0  0  0  0  0  0
    4.7513   48.5450   29.1996 C   0  0  2  0  0  0  0  0  0  0  0  0
    4.2386   49.6204   28.2447 C   0  0  0  0  0  0  0  0  0  0  0  0
    4.1708   48.7761   30.5859 C   0  0  0  0  0  0  0  0  0  0  0  0
    4.7920   49.7269   31.4339 C   0  0  0  0  0  0  0  0  0  0  0  0
    2.9612   48.1389   31.0195 C   0  0  0  0  0  0  0  0  0  0  0  0
    4.2139   49.9945   32.6677 C   0  0  0  0  0  0  0  0  0  0  0  0
    2.4101   48.4636   32.2786 C   0  0  0  0  0  0  0  0  0  0  0  0
    2.2684   47.1922   30.1951 N   0  0  0  0  0  0  0  0  0  0  0  0
    4.6454   50.8684   33.6470 O   0  0  0  0  0  0  0  0  0  0  0  0
    3.0731   49.3902   33.0720 C   0  0  0  0  0  0  0  0  0  0  0  0
    0.9019   47.2822   30.0658 O   0  0  0  0  0  0  0  0  0  0  0  0
    2.8375   46.1396   29.8412 O   0  0  0  0  0  0  0  0  0  0  0  0
    3.7156   50.8052   34.7371 C   0  0  0  0  0  0  0  0  0  0  0  0
    2.7271   49.8500   34.3281 O   0  0  0  0  0  0  0  0  0  0  0  0
    8.8120   40.1851   34.2132 O   0  0  0  0  0  0  0  0  0  0  0  0
   11.2403   40.7947   33.3700 O   0  0  0  0  0  0  0  0  0  0  0  0
   10.9145   40.6914   31.9982 C   0  0  0  0  0  0  0  0  0  0  0  0
   11.5270   39.3912   31.4385 C   0  0  0  0  0  0  0  0  0  0  0  0
   12.7520   39.0911   32.0836 O   0  0  0  0  0  0  0  0  0  0  0  0
   10.6113   38.1932   31.6451 C   0  0  0  0  0  0  0  0  0  0  0  0
   12.9413   37.6838   32.0297 C   0  0  0  0  0  0  0  0  0  0  0  0
    9.6064   38.0878   30.6599 O   0  0  0  0  0  0  0  0  0  0  0  0
   11.5822   37.0198   31.6877 C   0  0  0  0  0  0  0  0  0  0  0  0
   13.4840   37.2105   33.3254 N   0  0  0  0  0  0  0  0  0  0  0  0
   11.6179   36.3072   30.4690 O   0  0  0  0  0  0  0  0  0  0  0  0
   14.4797   36.3309   33.5738 C   0  0  0  0  0  0  0  0  0  0  0  0
   13.1136   37.6269   34.5702 C   0  0  0  0  0  0  0  0  0  0  0  0
   15.2074   35.6153   32.6747 N   0  0  0  0  0  0  0  0  0  0  0  0
   14.6756   36.2298   34.9190 C   0  0  0  0  0  0  0  0  0  0  0  0
   13.8217   37.0446   35.5793 N   0  0  0  0  0  0  0  0  0  0  0  0
   16.1643   34.7603   33.1551 C   0  0  0  0  0  0  0  0  0  0  0  0
   15.6528   35.3503   35.4136 C   0  0  0  0  0  0  0  0  0  0  0  0
   16.3798   34.6316   34.5046 N   0  0  0  0  0  0  0  0  0  0  0  0
   15.9004   35.1931   36.8094 N   0  0  0  0  0  0  0  0  0  0  0  0
    9.0120   45.4318   33.6711 H   0  0  0  0  0  0  0  0  0  0  0  0
   11.8907   45.7660   32.9476 H   0  0  0  0  0  0  0  0  0  0  0  0
   10.7259   46.9689   33.1214 H   0  0  0  0  0  0  0  0  0  0  0  0
    9.3425   43.8331   31.4758 H   0  0  0  0  0  0  0  0  0  0  0  0
   10.7236   44.8823   31.1558 H   0  0  0  0  0  0  0  0  0  0  0  0
    7.0101   44.7155   31.5816 H   0  0  0  0  0  0  0  0  0  0  0  0
   10.3460   47.1861   30.4098 H   0  0  0  0  0  0  0  0  0  0  0  0
    5.4671   46.2860   30.5134 H   0  0  0  0  0  0  0  0  0  0  0  0
    8.7934   48.7707   29.3437 H   0  0  0  0  0  0  0  0  0  0  0  0
    4.4480   47.5668   28.7795 H   0  0  0  0  0  0  0  0  0  0  0  0
    3.1294   49.5851   28.1859 H   0  0  0  0  0  0  0  0  0  0  0  0
    4.6506   49.4474   27.2278 H   0  0  0  0  0  0  0  0  0  0  0  0
    4.5528   50.6295   28.5881 H   0  0  0  0  0  0  0  0  0  0  0  0
    5.6908   50.2518   31.1363 H   0  0  0  0  0  0  0  0  0  0  0  0
    1.4973   47.9993   32.6292 H   0  0  0  0  0  0  0  0  0  0  0  0
    3.2455   51.7978   34.8988 H   0  0  0  0  0  0  0  0  0  0  0  0
    4.2272   50.4564   35.6585 H   0  0  0  0  0  0  0  0  0  0  0  0
   11.3778   41.5549   31.4744 H   0  0  0  0  0  0  0  0  0  0  0  0
    9.8235   40.7202   31.7653 H   0  0  0  0  0  0  0  0  0  0  0  0
   11.7311   39.5363   30.3532 H   0  0  0  0  0  0  0  0  0  0  0  0
   10.1203   38.2697   32.6410 H   0  0  0  0  0  0  0  0  0  0  0  0
   13.6850   37.4638   31.2321 H   0  0  0  0  0  0  0  0  0  0  0  0
   10.0251   38.1792   29.7654 H   0  0  0  0  0  0  0  0  0  0  0  0
   11.2757   36.3135   32.4908 H   0  0  0  0  0  0  0  0  0  0  0  0
   11.9838   36.9111   29.7708 H   0  0  0  0  0  0  0  0  0  0  0  0
   12.3307   38.3537   34.7457 H   0  0  0  0  0  0  0  0  0  0  0  0
   16.7566   34.1787   32.4623 H   0  0  0  0  0  0  0  0  0  0  0  0
   15.3534   35.7355   37.5144 H   0  0  0  0  0  0  0  0  0  0  0  0
   16.6353   34.5301   37.1419 H   0  0  0  0  0  0  0  0  0  0  0  0
  1  2  2  0
  1  3  1  0
  3  4  1  0
  4  5  1  0
  6  1  1  0
  7  6  1  0
  6  8  1  0
  8  9  1  0
  9 10  2  0
 11  9  1  0
 10 12  1  0
 13 11  2  0
 12 14  2  0
 14 13  1  0
 14 15  1  0
 15 16  1  0
 16 17  1  0
 16 18  1  0
 18 19  2  0
 20 18  1  0
 19 21  1  0
 22 20  2  0
 20 23  1  0
 21 24  1  0
 21 25  2  0
 25 22  1  0
 23 26  1  0
 23 27  2  0
 24 28  1  0
 25 29  1  0
 28 29  1  0
  4 30  2  0
  4 31  1  0
 32 31  1  0
 32 33  1  0
 33 34  1  0
 33 35  1  0
 34 36  1  0
 35 37  1  0
 35 38  1  0
 38 36  1  0
 36 39  1  0
 38 40  1  0
 41 39  1  0
 42 39  1  0
 43 41  2  0
 41 44  1  0
 45 42  2  0
 46 43  1  0
 44 47  2  0
 44 45  1  0
 48 46  2  0
 48 47  1  0
 47 49  1  0
  6 50  1  1
  7 51  1  0
  7 52  1  0
  8 53  1  0
  8 54  1  0
 10 55  1  0
 11 56  1  0
 12 57  1  0
 13 58  1  0
 16 59  1  6
 17 60  1  0
 17 61  1  0
 17 62  1  0
 19 63  1  0
 22 64  1  0
 28 65  1  0
 28 66  1  0
 32 67  1  0
 32 68  1  0
 33 69  1  0
 35 70  1  0
 36 71  1  0
 37 72  1  0
 38 73  1  0
 40 74  1  0
 42 75  1  0
 46 76  1  0
 49 77  1  0
 49 78  1  0
M  CHG  3   5  -1  23   1  26  -1
M  END
>  <EmbedRMS>  (342) 
0.0808269487832

$$$$

     RDKit          3D

 78 83  0  0  0  0  0  0  0  0999 V2000
   10.2834   43.7662   33.8253 C   0  0  0  0  0  0  0  0  0  0  0  0
   11.4100   43.5932   34.3751 O   0  0  0  0  0  0  0  0  0  0  0  0
    9.3637   42.7255   33.7347 O   0  0  0  0  0  0  0  0  0  0  0  0
    9.8903   41.2268   34.2942 P   0  0  0  0  0  0  0  0  0  0  0  0
   10.3735   41.4562   35.8836 O   0  0  0  0  0  0  0  0  0  0  0  0
    9.9546   45.0695   33.2029 C   0  0  1  0  0  0  0  0  0  0  0  0
   11.0272   46.0322   33.4752 N   0  0  0  0  0  0  0  0  0  0  0  0
    9.7466   44.8481   31.6868 C   0  0  0  0  0  0  0  0  0  0  0  0
    8.7922   45.8405   31.0830 C   0  0  0  0  0  0  0  0  0  0  0  0
    7.4042   45.6022   31.1009 C   0  0  0  0  0  0  0  0  0  0  0  0
    9.2823   46.9896   30.4427 C   0  0  0  0  0  0  0  0  0  0  0  0
    6.5240   46.5046   30.4878 C   0  0  0  0  0  0  0  0  0  0  0  0
    8.4008   47.8918   29.8360 C   0  0  0  0  0  0  0  0  0  0  0  0
    7.0213   47.6465   29.8414 C   0  0  0  0  0  0  0  0  0  0  0  0
    6.1570   48.5575   29.2253 O   0  0  0  0  0  0  0  0  0  0  0  0
    5.5361   48.3646   27.9466 C   0  0  2  0  0  0  0  0  0  0  0  0
    4.5530   47.1880   27.9495 C   0  0  0  0  0  0  0  0  0  0  0  0
    6.5715   48.2492   26.8312 C   0  0  0  0  0  0  0  0  0  0  0  0
    7.4196   47.1122   26.7862 C   0  0  0  0  0  0  0  0  0  0  0  0
    6.7599   49.2909   25.8606 C   0  0  0  0  0  0  0  0  0  0  0  0
    8.4280   47.0685   25.8333 C   0  0  0  0  0  0  0  0  0  0  0  0
    7.8132   49.1981   24.9241 C   0  0  0  0  0  0  0  0  0  0  0  0
    5.8923   50.4306   25.7958 N   0  0  0  0  0  0  0  0  0  0  0  0
    9.3676   46.0777   25.6229 O   0  0  0  0  0  0  0  0  0  0  0  0
    8.6204   48.0697   24.9455 C   0  0  0  0  0  0  0  0  0  0  0  0
    6.4298   51.6816   25.5993 O   0  0  0  0  0  0  0  0  0  0  0  0
    4.6670   50.2675   25.6221 O   0  0  0  0  0  0  0  0  0  0  0  0
   10.2030   46.4853   24.5308 C   0  0  0  0  0  0  0  0  0  0  0  0
    9.6906   47.7626   24.1274 O   0  0  0  0  0  0  0  0  0  0  0  0
    8.8122   40.1850   34.2130 O   0  0  0  0  0  0  0  0  0  0  0  0
   11.2407   40.7940   33.3693 O   0  0  0  0  0  0  0  0  0  0  0  0
   10.9152   40.6906   31.9974 C   0  0  0  0  0  0  0  0  0  0  0  0
   11.5253   39.3886   31.4375 C   0  0  0  0  0  0  0  0  0  0  0  0
   12.7500   39.0874   32.0799 O   0  0  0  0  0  0  0  0  0  0  0  0
   10.6092   38.1926   31.6469 C   0  0  0  0  0  0  0  0  0  0  0  0
   12.9332   37.6793   32.0294 C   0  0  0  0  0  0  0  0  0  0  0  0
    9.6122   38.0895   30.6542 O   0  0  0  0  0  0  0  0  0  0  0  0
   11.5743   37.0145   31.7024 C   0  0  0  0  0  0  0  0  0  0  0  0
   13.4844   37.2108   33.3241 N   0  0  0  0  0  0  0  0  0  0  0  0
   11.6297   36.3239   30.4740 O   0  0  0  0  0  0  0  0  0  0  0  0
   14.4802   36.3313   33.5726 C   0  0  0  0  0  0  0  0  0  0  0  0
   13.1138   37.6266   34.5692 C   0  0  0  0  0  0  0  0  0  0  0  0
   15.2075   35.6149   32.6739 N   0  0  0  0  0  0  0  0  0  0  0  0
   14.6761   36.2303   34.9181 C   0  0  0  0  0  0  0  0  0  0  0  0
   13.8220   37.0447   35.5785 N   0  0  0  0  0  0  0  0  0  0  0  0
   16.1643   34.7600   33.1547 C   0  0  0  0  0  0  0  0  0  0  0  0
   15.6529   35.3505   35.4130 C   0  0  0  0  0  0  0  0  0  0  0  0
   16.3798   34.6315   34.5042 N   0  0  0  0  0  0  0  0  0  0  0  0
   15.9002   35.1932   36.8090 N   0  0  0  0  0  0  0  0  0  0  0  0
    9.0119   45.4318   33.6706 H   0  0  0  0  0  0  0  0  0  0  0  0
   11.8905   45.7659   32.9466 H   0  0  0  0  0  0  0  0  0  0  0  0
   10.7258   46.9688   33.1209 H   0  0  0  0  0  0  0  0  0  0  0  0
    9.3417   43.8330   31.4753 H   0  0  0  0  0  0  0  0  0  0  0  0
   10.7230   44.8819   31.1548 H   0  0  0  0  0  0  0  0  0  0  0  0
    7.0070   44.7210   31.5894 H   0  0  0  0  0  0  0  0  0  0  0  0
   10.3465   47.1882   30.4116 H   0  0  0  0  0  0  0  0  0  0  0  0
    5.4591   46.3193   30.5278 H   0  0  0  0  0  0  0  0  0  0  0  0
    8.7903   48.7745   29.3448 H   0  0  0  0  0  0  0  0  0  0  0  0
    4.9139   49.2651   27.7931 H   0  0  0  0  0  0  0  0  0  0  0  0
    5.0704   46.2183   28.0936 H   0  0  0  0  0  0  0  0  0  0  0  0
    4.0063   47.1533   26.9830 H   0  0  0  0  0  0  0  0  0  0  0  0
    3.8120   47.3206   28.7659 H   0  0  0  0  0  0  0  0  0  0  0  0
    7.3172   46.2923   27.4835 H   0  0  0  0  0  0  0  0  0  0  0  0
    7.9802   49.9729   24.1868 H   0  0  0  0  0  0  0  0  0  0  0  0
   10.1236   45.7592   23.6948 H   0  0  0  0  0  0  0  0  0  0  0  0
   11.2558   46.5841   24.8688 H   0  0  0  0  0  0  0  0  0  0  0  0
   11.3803   41.5529   31.4733 H   0  0  0  0  0  0  0  0  0  0  0  0
    9.8243   40.7217   31.7642 H   0  0  0  0  0  0  0  0  0  0  0  0
   11.7266   39.5311   30.3513 H   0  0  0  0  0  0  0  0  0  0  0  0
   10.1110   38.2747   32.6387 H   0  0  0  0  0  0  0  0  0  0  0  0
   13.6652   37.4519   31.2226 H   0  0  0  0  0  0  0  0  0  0  0  0
   10.0511   38.1145   29.7645 H   0  0  0  0  0  0  0  0  0  0  0  0
   11.2761   36.3142   32.5189 H   0  0  0  0  0  0  0  0  0  0  0  0
   10.8593   35.6978   30.4640 H   0  0  0  0  0  0  0  0  0  0  0  0
   12.3294   38.3518   34.7449 H   0  0  0  0  0  0  0  0  0  0  0  0
   16.7564   34.1779   32.4620 H   0  0  0  0  0  0  0  0  0  0  0  0
   16.6349   34.5300   37.1415 H   0  0  0  0  0  0  0  0  0  0  0  0
   15.3534   35.7359   37.5138 H   0  0  0  0  0  0  0  0  0  0  0  0
  1  2  2  0
  1  3  1  0
  3  4  1  0
  4  5  1  0
  6  1  1  0
  7  6  1  0
  6  8  1  0
  8  9  1  0
  9 10  2  0
 11  9  1  0
 10 12  1  0
 13 11  2  0
 12 14  2  0
 14 13  1  0
 14 15  1  0
 15 16  1  0
 16 17  1  0
 16 18  1  0
 18 19  2  0
 20 18  1  0
 19 21  1  0
 22 20  2  0
 20 23  1  0
 21 24  1  0
 21 25  2  0
 25 22  1  0
 23 26  1  0
 23 27  2  0
 24 28  1  0
 25 29  1  0
 28 29  1  0
  4 30  2  0
  4 31  1  0
 32 31  1  0
 32 33  1  0
 33 34  1  0
 33 35  1  0
 34 36  1  0
 35 37  1  0
 35 38  1  0
 38 36  1  0
 36 39  1  0
 38 40  1  0
 41 39  1  0
 42 39  1  0
 43 41  2  0
 41 44  1  0
 45 42  2  0
 46 43  1  0
 44 47  2  0
 44 45  1  0
 48 46  2  0
 48 47  1  0
 47 49  1  0
  6 50  1  1
  7 51  1  0
  7 52  1  0
  8 53  1  0
  8 54  1  0
 10 55  1  0
 11 56  1  0
 12 57  1  0
 13 58  1  0
 16 59  1  6
 17 60  1  0
 17 61  1  0
 17 62  1  0
 19 63  1  0
 22 64  1  0
 28 65  1  0
 28 66  1  0
 32 67  1  0
 32 68  1  0
 33 69  1  0
 35 70  1  0
 36 71  1  0
 37 72  1  0
 38 73  1  0
 40 74  1  0
 42 75  1  0
 46 76  1  0
 49 77  1  0
 49 78  1  0
M  CHG  3   5  -1  23   1  26  -1
M  END
>  <EmbedRMS>  (343) 
0.0819451639202

$$$$

     RDKit          3D

 78 83  0  0  0  0  0  0  0  0999 V2000
   10.2838   43.7627   33.8278 C   0  0  0  0  0  0  0  0  0  0  0  0
   11.4103   43.5863   34.3767 O   0  0  0  0  0  0  0  0  0  0  0  0
    9.3628   42.7238   33.7358 O   0  0  0  0  0  0  0  0  0  0  0  0
    9.8891   41.2251   34.2949 P   0  0  0  0  0  0  0  0  0  0  0  0
   10.3724   41.4547   35.8843 O   0  0  0  0  0  0  0  0  0  0  0  0
    9.9548   45.0700   33.2066 C   0  0  1  0  0  0  0  0  0  0  0  0
   11.0199   46.0480   33.4568 N   0  0  0  0  0  0  0  0  0  0  0  0
    9.7500   44.8508   31.6926 C   0  0  0  0  0  0  0  0  0  0  0  0
    8.7941   45.8419   31.0874 C   0  0  0  0  0  0  0  0  0  0  0  0
    7.4076   45.6009   31.0998 C   0  0  0  0  0  0  0  0  0  0  0  0
    9.2830   46.9887   30.4447 C   0  0  0  0  0  0  0  0  0  0  0  0
    6.5285   46.5014   30.4833 C   0  0  0  0  0  0  0  0  0  0  0  0
    8.4039   47.8896   29.8315 C   0  0  0  0  0  0  0  0  0  0  0  0
    7.0138   47.6533   29.8485 C   0  0  0  0  0  0  0  0  0  0  0  0
    6.0824   48.5165   29.2473 O   0  0  0  0  0  0  0  0  0  0  0  0
    6.3688   49.7900   28.6629 C   0  0  2  0  0  0  0  0  0  0  0  0
    6.6464   50.8301   29.7567 C   0  0  0  0  0  0  0  0  0  0  0  0
    5.1808   50.2162   27.8184 C   0  0  0  0  0  0  0  0  0  0  0  0
    3.9135   50.3302   28.4430 C   0  0  0  0  0  0  0  0  0  0  0  0
    5.3046   50.5458   26.4269 C   0  0  0  0  0  0  0  0  0  0  0  0
    2.8426   50.7999   27.6939 C   0  0  0  0  0  0  0  0  0  0  0  0
    4.1837   51.0363   25.7207 C   0  0  0  0  0  0  0  0  0  0  0  0
    6.5367   50.3711   25.7141 N   0  0  0  0  0  0  0  0  0  0  0  0
    1.5357   50.9998   28.0952 O   0  0  0  0  0  0  0  0  0  0  0  0
    2.9734   51.1441   26.3923 C   0  0  0  0  0  0  0  0  0  0  0  0
    6.9406   51.3280   24.8121 O   0  0  0  0  0  0  0  0  0  0  0  0
    7.0864   49.2506   25.6898 O   0  0  0  0  0  0  0  0  0  0  0  0
    0.7999   51.5020   26.9712 C   0  0  0  0  0  0  0  0  0  0  0  0
    1.7558   51.5785   25.9048 O   0  0  0  0  0  0  0  0  0  0  0  0
    8.8112   40.1834   34.2132 O   0  0  0  0  0  0  0  0  0  0  0  0
   11.2398   40.7938   33.3702 O   0  0  0  0  0  0  0  0  0  0  0  0
   10.9144   40.6912   31.9983 C   0  0  0  0  0  0  0  0  0  0  0  0
   11.5270   39.3911   31.4385 C   0  0  0  0  0  0  0  0  0  0  0  0
   12.7520   39.0911   32.0835 O   0  0  0  0  0  0  0  0  0  0  0  0
   10.6113   38.1931   31.6451 C   0  0  0  0  0  0  0  0  0  0  0  0
   12.9413   37.6837   32.0297 C   0  0  0  0  0  0  0  0  0  0  0  0
    9.6064   38.0877   30.6599 O   0  0  0  0  0  0  0  0  0  0  0  0
   11.5822   37.0197   31.6876 C   0  0  0  0  0  0  0  0  0  0  0  0
   13.4840   37.2104   33.3254 N   0  0  0  0  0  0  0  0  0  0  0  0
   11.6179   36.3072   30.4690 O   0  0  0  0  0  0  0  0  0  0  0  0
   14.4797   36.3309   33.5738 C   0  0  0  0  0  0  0  0  0  0  0  0
   13.1136   37.6269   34.5702 C   0  0  0  0  0  0  0  0  0  0  0  0
   15.2074   35.6152   32.6747 N   0  0  0  0  0  0  0  0  0  0  0  0
   14.6756   36.2298   34.9190 C   0  0  0  0  0  0  0  0  0  0  0  0
   13.8217   37.0445   35.5793 N   0  0  0  0  0  0  0  0  0  0  0  0
   16.1643   34.7603   33.1551 C   0  0  0  0  0  0  0  0  0  0  0  0
   15.6528   35.3503   35.4136 C   0  0  0  0  0  0  0  0  0  0  0  0
   16.3798   34.6316   34.5046 N   0  0  0  0  0  0  0  0  0  0  0  0
   15.9004   35.1930   36.8094 N   0  0  0  0  0  0  0  0  0  0  0  0
    9.0100   45.4350   33.6674 H   0  0  0  0  0  0  0  0  0  0  0  0
   11.9349   45.6931   33.0924 H   0  0  0  0  0  0  0  0  0  0  0  0
   11.1137   46.1993   34.4881 H   0  0  0  0  0  0  0  0  0  0  0  0
   10.7302   44.8920   31.1676 H   0  0  0  0  0  0  0  0  0  0  0  0
    9.3506   43.8343   31.4766 H   0  0  0  0  0  0  0  0  0  0  0  0
    7.0110   44.7155   31.5813 H   0  0  0  0  0  0  0  0  0  0  0  0
   10.3476   47.1862   30.4146 H   0  0  0  0  0  0  0  0  0  0  0  0
    5.4642   46.3032   30.5001 H   0  0  0  0  0  0  0  0  0  0  0  0
    8.8229   48.7573   29.3442 H   0  0  0  0  0  0  0  0  0  0  0  0
    7.2777   49.7156   28.0388 H   0  0  0  0  0  0  0  0  0  0  0  0
    6.7870   51.8339   29.3016 H   0  0  0  0  0  0  0  0  0  0  0  0
    5.8087   50.8759   30.4838 H   0  0  0  0  0  0  0  0  0  0  0  0
    7.5702   50.5722   30.3134 H   0  0  0  0  0  0  0  0  0  0  0  0
    3.7696   50.0730   29.4846 H   0  0  0  0  0  0  0  0  0  0  0  0
    4.2496   51.2984   24.6725 H   0  0  0  0  0  0  0  0  0  0  0  0
    0.3957   52.5111   27.1966 H   0  0  0  0  0  0  0  0  0  0  0  0
   -0.0178   50.8005   26.7031 H   0  0  0  0  0  0  0  0  0  0  0  0
    9.8235   40.7202   31.7651 H   0  0  0  0  0  0  0  0  0  0  0  0
   11.3780   41.5548   31.4750 H   0  0  0  0  0  0  0  0  0  0  0  0
   11.7311   39.5363   30.3531 H   0  0  0  0  0  0  0  0  0  0  0  0
   10.1202   38.2695   32.6410 H   0  0  0  0  0  0  0  0  0  0  0  0
   13.6850   37.4638   31.2321 H   0  0  0  0  0  0  0  0  0  0  0  0
   10.0251   38.1792   29.7654 H   0  0  0  0  0  0  0  0  0  0  0  0
   11.2757   36.3135   32.4907 H   0  0  0  0  0  0  0  0  0  0  0  0
   11.9839   36.9111   29.7708 H   0  0  0  0  0  0  0  0  0  0  0  0
   12.3307   38.3536   34.7457 H   0  0  0  0  0  0  0  0  0  0  0  0
   16.7566   34.1787   32.4623 H   0  0  0  0  0  0  0  0  0  0  0  0
   16.6353   34.5301   37.1419 H   0  0  0  0  0  0  0  0  0  0  0  0
   15.3535   35.7355   37.5144 H   0  0  0  0  0  0  0  0  0  0  0  0
  1  2  2  0
  1  3  1  0
  3  4  1  0
  4  5  1  0
  6  1  1  0
  7  6  1  0
  6  8  1  0
  8  9  1  0
  9 10  2  0
 11  9  1  0
 10 12  1  0
 13 11  2  0
 12 14  2  0
 14 13  1  0
 14 15  1  0
 15 16  1  0
 16 17  1  0
 16 18  1  0
 18 19  2  0
 20 18  1  0
 19 21  1  0
 22 20  2  0
 20 23  1  0
 21 24  1  0
 21 25  2  0
 25 22  1  0
 23 26  1  0
 23 27  2  0
 24 28  1  0
 25 29  1  0
 28 29  1  0
  4 30  2  0
  4 31  1  0
 32 31  1  0
 32 33  1  0
 33 34  1  0
 33 35  1  0
 34 36  1  0
 35 37  1  0
 35 38  1  0
 38 36  1  0
 36 39  1  0
 38 40  1  0
 41 39  1  0
 42 39  1  0
 43 41  2  0
 41 44  1  0
 45 42  2  0
 46 43  1  0
 44 47  2  0
 44 45  1  0
 48 46  2  0
 48 47  1  0
 47 49  1  0
  6 50  1  1
  7 51  1  0
  7 52  1  0
  8 53  1  0
  8 54  1  0
 10 55  1  0
 11 56  1  0
 12 57  1  0
 13 58  1  0
 16 59  1  6
 17 60  1  0
 17 61  1  0
 17 62  1  0
 19 63  1  0
 22 64  1  0
 28 65  1  0
 28 66  1  0
 32 67  1  0
 32 68  1  0
 33 69  1  0
 35 70  1  0
 36 71  1  0
 37 72  1  0
 38 73  1  0
 40 74  1  0
 42 75  1  0
 46 76  1  0
 49 77  1  0
 49 78  1  0
M  CHG  3   5  -1  23   1  26  -1
M  END
>  <EmbedRMS>  (344) 
0.0817226847329

$$$$

     RDKit          3D

 78 83  0  0  0  0  0  0  0  0999 V2000
   10.2804   43.7664   33.8251 C   0  0  0  0  0  0  0  0  0  0  0  0
   11.4110   43.5918   34.3667 O   0  0  0  0  0  0  0  0  0  0  0  0
    9.3618   42.7249   33.7345 O   0  0  0  0  0  0  0  0  0  0  0  0
    9.8902   41.2265   34.2932 P   0  0  0  0  0  0  0  0  0  0  0  0
   10.3743   41.4562   35.8824 O   0  0  0  0  0  0  0  0  0  0  0  0
    9.9459   45.0736   33.2113 C   0  0  1  0  0  0  0  0  0  0  0  0
   11.0267   46.0291   33.4706 N   0  0  0  0  0  0  0  0  0  0  0  0
    9.7534   44.8539   31.6951 C   0  0  0  0  0  0  0  0  0  0  0  0
    8.7954   45.8412   31.0851 C   0  0  0  0  0  0  0  0  0  0  0  0
    7.4088   45.6004   31.1005 C   0  0  0  0  0  0  0  0  0  0  0  0
    9.2828   46.9875   30.4398 C   0  0  0  0  0  0  0  0  0  0  0  0
    6.5286   46.5006   30.4846 C   0  0  0  0  0  0  0  0  0  0  0  0
    8.4026   47.8889   29.8294 C   0  0  0  0  0  0  0  0  0  0  0  0
    7.0130   47.6524   29.8491 C   0  0  0  0  0  0  0  0  0  0  0  0
    6.0808   48.5158   29.2505 O   0  0  0  0  0  0  0  0  0  0  0  0
    6.3647   49.7891   28.6651 C   0  0  2  0  0  0  0  0  0  0  0  0
    6.6706   50.8385   29.7406 C   0  0  0  0  0  0  0  0  0  0  0  0
    5.2085   50.2537   27.7952 C   0  0  0  0  0  0  0  0  0  0  0  0
    5.5227   51.0689   26.6799 C   0  0  0  0  0  0  0  0  0  0  0  0
    3.8366   49.8876   28.0278 C   0  0  0  0  0  0  0  0  0  0  0  0
    4.4975   51.4628   25.8308 C   0  0  0  0  0  0  0  0  0  0  0  0
    2.8389   50.3070   27.1176 C   0  0  0  0  0  0  0  0  0  0  0  0
    3.4362   49.1061   29.1642 N   0  0  0  0  0  0  0  0  0  0  0  0
    4.5766   52.2426   24.6929 O   0  0  0  0  0  0  0  0  0  0  0  0
    3.2133   51.0944   26.0378 C   0  0  0  0  0  0  0  0  0  0  0  0
    3.8073   49.4865   30.4322 O   0  0  0  0  0  0  0  0  0  0  0  0
    2.5699   48.2169   29.0327 O   0  0  0  0  0  0  0  0  0  0  0  0
    3.2545   52.3711   24.1522 C   0  0  0  0  0  0  0  0  0  0  0  0
    2.4147   51.6228   25.0418 O   0  0  0  0  0  0  0  0  0  0  0  0
    8.8123   40.1844   34.2130 O   0  0  0  0  0  0  0  0  0  0  0  0
   11.2401   40.7949   33.3666 O   0  0  0  0  0  0  0  0  0  0  0  0
   10.9124   40.6859   31.9952 C   0  0  0  0  0  0  0  0  0  0  0  0
   11.5175   39.3786   31.4405 C   0  0  0  0  0  0  0  0  0  0  0  0
   12.7490   39.0864   32.0753 O   0  0  0  0  0  0  0  0  0  0  0  0
   10.6060   38.1867   31.6656 C   0  0  0  0  0  0  0  0  0  0  0  0
   12.9355   37.6796   32.0292 C   0  0  0  0  0  0  0  0  0  0  0  0
    9.6399   38.0902   30.6471 O   0  0  0  0  0  0  0  0  0  0  0  0
   11.5765   37.0145   31.7044 C   0  0  0  0  0  0  0  0  0  0  0  0
   13.4858   37.2125   33.3244 N   0  0  0  0  0  0  0  0  0  0  0  0
   11.6101   36.3397   30.4673 O   0  0  0  0  0  0  0  0  0  0  0  0
   14.4805   36.3319   33.5729 C   0  0  0  0  0  0  0  0  0  0  0  0
   13.1144   37.6277   34.5694 C   0  0  0  0  0  0  0  0  0  0  0  0
   15.2076   35.6153   32.6741 N   0  0  0  0  0  0  0  0  0  0  0  0
   14.6760   36.2304   34.9184 C   0  0  0  0  0  0  0  0  0  0  0  0
   13.8219   37.0449   35.5786 N   0  0  0  0  0  0  0  0  0  0  0  0
   16.1641   34.7600   33.1548 C   0  0  0  0  0  0  0  0  0  0  0  0
   15.6528   35.3505   35.4132 C   0  0  0  0  0  0  0  0  0  0  0  0
   16.3795   34.6314   34.5043 N   0  0  0  0  0  0  0  0  0  0  0  0
   15.9002   35.1931   36.8091 N   0  0  0  0  0  0  0  0  0  0  0  0
    8.9996   45.4382   33.6725 H   0  0  0  0  0  0  0  0  0  0  0  0
   11.0505   46.2277   34.4980 H   0  0  0  0  0  0  0  0  0  0  0  0
   10.7764   46.9368   33.0157 H   0  0  0  0  0  0  0  0  0  0  0  0
   10.7405   44.9069   31.1836 H   0  0  0  0  0  0  0  0  0  0  0  0
    9.3634   43.8353   31.4717 H   0  0  0  0  0  0  0  0  0  0  0  0
    7.0131   44.7158   31.5843 H   0  0  0  0  0  0  0  0  0  0  0  0
   10.3472   47.1849   30.4053 H   0  0  0  0  0  0  0  0  0  0  0  0
    5.4642   46.3031   30.5036 H   0  0  0  0  0  0  0  0  0  0  0  0
    8.8193   48.7581   29.3420 H   0  0  0  0  0  0  0  0  0  0  0  0
    7.2570   49.6804   28.0103 H   0  0  0  0  0  0  0  0  0  0  0  0
    5.7811   51.0373   30.3712 H   0  0  0  0  0  0  0  0  0  0  0  0
    7.4960   50.4982   30.3982 H   0  0  0  0  0  0  0  0  0  0  0  0
    6.9823   51.7910   29.2615 H   0  0  0  0  0  0  0  0  0  0  0  0
    6.5402   51.3771   26.4738 H   0  0  0  0  0  0  0  0  0  0  0  0
    1.7989   50.0437   27.2620 H   0  0  0  0  0  0  0  0  0  0  0  0
    2.9463   53.4376   24.1406 H   0  0  0  0  0  0  0  0  0  0  0  0
    3.2134   51.9376   23.1310 H   0  0  0  0  0  0  0  0  0  0  0  0
   11.3802   41.5436   31.4661 H   0  0  0  0  0  0  0  0  0  0  0  0
    9.8214   40.7199   31.7634 H   0  0  0  0  0  0  0  0  0  0  0  0
   11.6999   39.5040   30.3482 H   0  0  0  0  0  0  0  0  0  0  0  0
   10.1085   38.2766   32.6603 H   0  0  0  0  0  0  0  0  0  0  0  0
   13.6679   37.4521   31.2229 H   0  0  0  0  0  0  0  0  0  0  0  0
    9.0016   37.3867   30.9350 H   0  0  0  0  0  0  0  0  0  0  0  0
   11.2667   36.3062   32.5084 H   0  0  0  0  0  0  0  0  0  0  0  0
   12.1389   35.5126   30.6150 H   0  0  0  0  0  0  0  0  0  0  0  0
   12.3300   38.3529   34.7449 H   0  0  0  0  0  0  0  0  0  0  0  0
   16.7560   34.1779   32.4620 H   0  0  0  0  0  0  0  0  0  0  0  0
   16.6348   34.5298   37.1416 H   0  0  0  0  0  0  0  0  0  0  0  0
   15.3534   35.7359   37.5140 H   0  0  0  0  0  0  0  0  0  0  0  0
  1  2  2  0
  1  3  1  0
  3  4  1  0
  4  5  1  0
  6  1  1  0
  7  6  1  0
  6  8  1  0
  8  9  1  0
  9 10  2  0
 11  9  1  0
 10 12  1  0
 13 11  2  0
 12 14  2  0
 14 13  1  0
 14 15  1  0
 15 16  1  0
 16 17  1  0
 16 18  1  0
 18 19  2  0
 20 18  1  0
 19 21  1  0
 22 20  2  0
 20 23  1  0
 21 24  1  0
 21 25  2  0
 25 22  1  0
 23 26  1  0
 23 27  2  0
 24 28  1  0
 25 29  1  0
 28 29  1  0
  4 30  2  0
  4 31  1  0
 32 31  1  0
 32 33  1  0
 33 34  1  0
 33 35  1  0
 34 36  1  0
 35 37  1  0
 35 38  1  0
 38 36  1  0
 36 39  1  0
 38 40  1  0
 41 39  1  0
 42 39  1  0
 43 41  2  0
 41 44  1  0
 45 42  2  0
 46 43  1  0
 44 47  2  0
 44 45  1  0
 48 46  2  0
 48 47  1  0
 47 49  1  0
  6 50  1  1
  7 51  1  0
  7 52  1  0
  8 53  1  0
  8 54  1  0
 10 55  1  0
 11 56  1  0
 12 57  1  0
 13 58  1  0
 16 59  1  6
 17 60  1  0
 17 61  1  0
 17 62  1  0
 19 63  1  0
 22 64  1  0
 28 65  1  0
 28 66  1  0
 32 67  1  0
 32 68  1  0
 33 69  1  0
 35 70  1  0
 36 71  1  0
 37 72  1  0
 38 73  1  0
 40 74  1  0
 42 75  1  0
 46 76  1  0
 49 77  1  0
 49 78  1  0
M  CHG  3   5  -1  23   1  26  -1
M  END
>  <EmbedRMS>  (345) 
0.08221198525

$$$$

     RDKit          3D

 78 83  0  0  0  0  0  0  0  0999 V2000
   10.2836   43.7661   33.8257 C   0  0  0  0  0  0  0  0  0  0  0  0
   11.4103   43.5930   34.3754 O   0  0  0  0  0  0  0  0  0  0  0  0
    9.3641   42.7252   33.7347 O   0  0  0  0  0  0  0  0  0  0  0  0
    9.8908   41.2264   34.2939 P   0  0  0  0  0  0  0  0  0  0  0  0
   10.3732   41.4558   35.8836 O   0  0  0  0  0  0  0  0  0  0  0  0
    9.9547   45.0694   33.2037 C   0  0  1  0  0  0  0  0  0  0  0  0
   11.0273   46.0321   33.4757 N   0  0  0  0  0  0  0  0  0  0  0  0
    9.7465   44.8480   31.6878 C   0  0  0  0  0  0  0  0  0  0  0  0
    8.7923   45.8409   31.0848 C   0  0  0  0  0  0  0  0  0  0  0  0
    7.4057   45.6014   31.0988 C   0  0  0  0  0  0  0  0  0  0  0  0
    9.2821   46.9875   30.4422 C   0  0  0  0  0  0  0  0  0  0  0  0
    6.5272   46.5027   30.4832 C   0  0  0  0  0  0  0  0  0  0  0  0
    8.4034   47.8897   29.8307 C   0  0  0  0  0  0  0  0  0  0  0  0
    7.0133   47.6542   29.8486 C   0  0  0  0  0  0  0  0  0  0  0  0
    6.0825   48.5185   29.2490 O   0  0  0  0  0  0  0  0  0  0  0  0
    6.3678   49.7925   28.6657 C   0  0  2  0  0  0  0  0  0  0  0  0
    6.6734   50.8409   29.7423 C   0  0  0  0  0  0  0  0  0  0  0  0
    5.2112   50.2564   27.7958 C   0  0  0  0  0  0  0  0  0  0  0  0
    5.5277   51.0394   26.6583 C   0  0  0  0  0  0  0  0  0  0  0  0
    3.8351   49.9190   28.0503 C   0  0  0  0  0  0  0  0  0  0  0  0
    4.5007   51.4293   25.8095 C   0  0  0  0  0  0  0  0  0  0  0  0
    2.8364   50.3310   27.1389 C   0  0  0  0  0  0  0  0  0  0  0  0
    3.4288   49.1673   29.2045 N   0  0  0  0  0  0  0  0  0  0  0  0
    4.5810   52.1800   24.6524 O   0  0  0  0  0  0  0  0  0  0  0  0
    3.2129   51.0863   26.0371 C   0  0  0  0  0  0  0  0  0  0  0  0
    2.4268   48.2316   29.0893 O   0  0  0  0  0  0  0  0  0  0  0  0
    3.7987   49.5135   30.3445 O   0  0  0  0  0  0  0  0  0  0  0  0
    3.2561   52.3163   24.1208 C   0  0  0  0  0  0  0  0  0  0  0  0
    2.4132   51.6030   25.0359 O   0  0  0  0  0  0  0  0  0  0  0  0
    8.8127   40.1847   34.2122 O   0  0  0  0  0  0  0  0  0  0  0  0
   11.2421   40.7941   33.3697 O   0  0  0  0  0  0  0  0  0  0  0  0
   10.9187   40.6911   31.9971 C   0  0  0  0  0  0  0  0  0  0  0  0
   11.5172   39.3815   31.4407 C   0  0  0  0  0  0  0  0  0  0  0  0
   12.7493   39.0855   32.0728 O   0  0  0  0  0  0  0  0  0  0  0  0
   10.6023   38.1908   31.6665 C   0  0  0  0  0  0  0  0  0  0  0  0
   12.9319   37.6781   32.0281 C   0  0  0  0  0  0  0  0  0  0  0  0
    9.6392   38.0798   30.6452 O   0  0  0  0  0  0  0  0  0  0  0  0
   11.5715   37.0165   31.7056 C   0  0  0  0  0  0  0  0  0  0  0  0
   13.4847   37.2121   33.3235 N   0  0  0  0  0  0  0  0  0  0  0  0
   11.6187   36.3384   30.4695 O   0  0  0  0  0  0  0  0  0  0  0  0
   14.4801   36.3321   33.5724 C   0  0  0  0  0  0  0  0  0  0  0  0
   13.1137   37.6275   34.5688 C   0  0  0  0  0  0  0  0  0  0  0  0
   15.2073   35.6153   32.6738 N   0  0  0  0  0  0  0  0  0  0  0  0
   14.6759   36.2308   34.9179 C   0  0  0  0  0  0  0  0  0  0  0  0
   13.8216   37.0452   35.5781 N   0  0  0  0  0  0  0  0  0  0  0  0
   16.1640   34.7602   33.1546 C   0  0  0  0  0  0  0  0  0  0  0  0
   15.6526   35.3508   35.4129 C   0  0  0  0  0  0  0  0  0  0  0  0
   16.3794   34.6317   34.5041 N   0  0  0  0  0  0  0  0  0  0  0  0
   15.8999   35.1935   36.8088 N   0  0  0  0  0  0  0  0  0  0  0  0
    9.0121   45.4316   33.6716 H   0  0  0  0  0  0  0  0  0  0  0  0
   10.7259   46.9687   33.1213 H   0  0  0  0  0  0  0  0  0  0  0  0
   11.8906   45.7658   32.9470 H   0  0  0  0  0  0  0  0  0  0  0  0
   10.7229   44.8813   31.1558 H   0  0  0  0  0  0  0  0  0  0  0  0
    9.3413   43.8329   31.4764 H   0  0  0  0  0  0  0  0  0  0  0  0
    7.0084   44.7164   31.5804 H   0  0  0  0  0  0  0  0  0  0  0  0
   10.3469   47.1835   30.4103 H   0  0  0  0  0  0  0  0  0  0  0  0
    5.4625   46.3061   30.5007 H   0  0  0  0  0  0  0  0  0  0  0  0
    8.8214   48.7587   29.3441 H   0  0  0  0  0  0  0  0  0  0  0  0
    7.2616   49.6849   28.0127 H   0  0  0  0  0  0  0  0  0  0  0  0
    6.9762   51.7966   29.2636 H   0  0  0  0  0  0  0  0  0  0  0  0
    7.5052   50.5041   30.3935 H   0  0  0  0  0  0  0  0  0  0  0  0
    5.7875   51.0328   30.3800 H   0  0  0  0  0  0  0  0  0  0  0  0
    6.5477   51.3265   26.4351 H   0  0  0  0  0  0  0  0  0  0  0  0
    1.7938   50.0876   27.2984 H   0  0  0  0  0  0  0  0  0  0  0  0
    2.9644   53.3869   24.0861 H   0  0  0  0  0  0  0  0  0  0  0  0
    3.1985   51.8590   23.1108 H   0  0  0  0  0  0  0  0  0  0  0  0
    9.8300   40.7410   31.7613 H   0  0  0  0  0  0  0  0  0  0  0  0
   11.3968   41.5460   31.4729 H   0  0  0  0  0  0  0  0  0  0  0  0
   11.6975   39.5067   30.3481 H   0  0  0  0  0  0  0  0  0  0  0  0
   10.1077   38.2648   32.6645 H   0  0  0  0  0  0  0  0  0  0  0  0
   13.6621   37.4467   31.2209 H   0  0  0  0  0  0  0  0  0  0  0  0
    8.8975   38.6944   30.8831 H   0  0  0  0  0  0  0  0  0  0  0  0
   11.2806   36.3073   32.5170 H   0  0  0  0  0  0  0  0  0  0  0  0
   10.8492   35.7110   30.4586 H   0  0  0  0  0  0  0  0  0  0  0  0
   12.3290   38.3524   34.7444 H   0  0  0  0  0  0  0  0  0  0  0  0
   16.7559   34.1780   32.4619 H   0  0  0  0  0  0  0  0  0  0  0  0
   16.6344   34.5301   37.1414 H   0  0  0  0  0  0  0  0  0  0  0  0
   15.3532   35.7362   37.5137 H   0  0  0  0  0  0  0  0  0  0  0  0
  1  2  2  0
  1  3  1  0
  3  4  1  0
  4  5  1  0
  6  1  1  0
  7  6  1  0
  6  8  1  0
  8  9  1  0
  9 10  2  0
 11  9  1  0
 10 12  1  0
 13 11  2  0
 12 14  2  0
 14 13  1  0
 14 15  1  0
 15 16  1  0
 16 17  1  0
 16 18  1  0
 18 19  2  0
 20 18  1  0
 19 21  1  0
 22 20  2  0
 20 23  1  0
 21 24  1  0
 21 25  2  0
 25 22  1  0
 23 26  1  0
 23 27  2  0
 24 28  1  0
 25 29  1  0
 28 29  1  0
  4 30  2  0
  4 31  1  0
 32 31  1  0
 32 33  1  0
 33 34  1  0
 33 35  1  0
 34 36  1  0
 35 37  1  0
 35 38  1  0
 38 36  1  0
 36 39  1  0
 38 40  1  0
 41 39  1  0
 42 39  1  0
 43 41  2  0
 41 44  1  0
 45 42  2  0
 46 43  1  0
 44 47  2  0
 44 45  1  0
 48 46  2  0
 48 47  1  0
 47 49  1  0
  6 50  1  1
  7 51  1  0
  7 52  1  0
  8 53  1  0
  8 54  1  0
 10 55  1  0
 11 56  1  0
 12 57  1  0
 13 58  1  0
 16 59  1  6
 17 60  1  0
 17 61  1  0
 17 62  1  0
 19 63  1  0
 22 64  1  0
 28 65  1  0
 28 66  1  0
 32 67  1  0
 32 68  1  0
 33 69  1  0
 35 70  1  0
 36 71  1  0
 37 72  1  0
 38 73  1  0
 40 74  1  0
 42 75  1  0
 46 76  1  0
 49 77  1  0
 49 78  1  0
M  CHG  3   5  -1  23   1  26  -1
M  END
>  <EmbedRMS>  (346) 
0.0829338587086

$$$$

     RDKit          3D

 78 83  0  0  0  0  0  0  0  0999 V2000
   10.2804   43.7664   33.8250 C   0  0  0  0  0  0  0  0  0  0  0  0
   11.4111   43.5919   34.3667 O   0  0  0  0  0  0  0  0  0  0  0  0
    9.3619   42.7249   33.7347 O   0  0  0  0  0  0  0  0  0  0  0  0
    9.8900   41.2267   34.2944 P   0  0  0  0  0  0  0  0  0  0  0  0
   10.3728   41.4567   35.8839 O   0  0  0  0  0  0  0  0  0  0  0  0
    9.9459   45.0735   33.2111 C   0  0  1  0  0  0  0  0  0  0  0  0
   11.0267   46.0291   33.4705 N   0  0  0  0  0  0  0  0  0  0  0  0
    9.7534   44.8538   31.6949 C   0  0  0  0  0  0  0  0  0  0  0  0
    8.7954   45.8411   31.0848 C   0  0  0  0  0  0  0  0  0  0  0  0
    7.4086   45.6008   31.1012 C   0  0  0  0  0  0  0  0  0  0  0  0
    9.2830   46.9879   30.4401 C   0  0  0  0  0  0  0  0  0  0  0  0
    6.5281   46.5013   30.4860 C   0  0  0  0  0  0  0  0  0  0  0  0
    8.4026   47.8894   29.8309 C   0  0  0  0  0  0  0  0  0  0  0  0
    7.0138   47.6501   29.8465 C   0  0  0  0  0  0  0  0  0  0  0  0
    6.0872   48.5134   29.2386 O   0  0  0  0  0  0  0  0  0  0  0  0
    6.4182   49.6816   28.4843 C   0  0  2  0  0  0  0  0  0  0  0  0
    5.1555   50.4978   28.2101 C   0  0  0  0  0  0  0  0  0  0  0  0
    7.1313   49.3454   27.1824 C   0  0  0  0  0  0  0  0  0  0  0  0
    8.1030   50.2666   26.7217 C   0  0  0  0  0  0  0  0  0  0  0  0
    6.9049   48.1359   26.4361 C   0  0  0  0  0  0  0  0  0  0  0  0
    8.8262   49.9570   25.5779 C   0  0  0  0  0  0  0  0  0  0  0  0
    7.6852   47.8695   25.2883 C   0  0  0  0  0  0  0  0  0  0  0  0
    5.9169   47.1681   26.8224 N   0  0  0  0  0  0  0  0  0  0  0  0
    9.8173   50.6967   24.9620 O   0  0  0  0  0  0  0  0  0  0  0  0
    8.6291   48.8075   24.8941 C   0  0  0  0  0  0  0  0  0  0  0  0
    6.1874   45.8262   26.6850 O   0  0  0  0  0  0  0  0  0  0  0  0
    4.7466   47.5230   27.0676 O   0  0  0  0  0  0  0  0  0  0  0  0
   10.2702   49.9621   23.8167 C   0  0  0  0  0  0  0  0  0  0  0  0
    9.4850   48.7620   23.8105 O   0  0  0  0  0  0  0  0  0  0  0  0
    8.8127   40.1842   34.2128 O   0  0  0  0  0  0  0  0  0  0  0  0
   11.2414   40.7950   33.3705 O   0  0  0  0  0  0  0  0  0  0  0  0
   10.9178   40.6922   31.9983 C   0  0  0  0  0  0  0  0  0  0  0  0
   11.5175   39.3837   31.4423 C   0  0  0  0  0  0  0  0  0  0  0  0
   12.7507   39.0887   32.0753 O   0  0  0  0  0  0  0  0  0  0  0  0
   10.6027   38.1916   31.6659 C   0  0  0  0  0  0  0  0  0  0  0  0
   12.9384   37.6819   32.0278 C   0  0  0  0  0  0  0  0  0  0  0  0
    9.6371   38.0805   30.6470 O   0  0  0  0  0  0  0  0  0  0  0  0
   11.5780   37.0215   31.6935 C   0  0  0  0  0  0  0  0  0  0  0  0
   13.4844   37.2119   33.3242 N   0  0  0  0  0  0  0  0  0  0  0  0
   11.6095   36.3201   30.4679 O   0  0  0  0  0  0  0  0  0  0  0  0
   14.4797   36.3318   33.5730 C   0  0  0  0  0  0  0  0  0  0  0  0
   13.1135   37.6278   34.5691 C   0  0  0  0  0  0  0  0  0  0  0  0
   15.2073   35.6155   32.6742 N   0  0  0  0  0  0  0  0  0  0  0  0
   14.6754   36.2305   34.9184 C   0  0  0  0  0  0  0  0  0  0  0  0
   13.8213   37.0452   35.5785 N   0  0  0  0  0  0  0  0  0  0  0  0
   16.1640   34.7604   33.1549 C   0  0  0  0  0  0  0  0  0  0  0  0
   15.6525   35.3507   35.4132 C   0  0  0  0  0  0  0  0  0  0  0  0
   16.3794   34.6318   34.5044 N   0  0  0  0  0  0  0  0  0  0  0  0
   15.9000   35.1934   36.8091 N   0  0  0  0  0  0  0  0  0  0  0  0
    8.9996   45.4381   33.6723 H   0  0  0  0  0  0  0  0  0  0  0  0
   11.0504   46.2277   34.4978 H   0  0  0  0  0  0  0  0  0  0  0  0
   10.7764   46.9367   33.0155 H   0  0  0  0  0  0  0  0  0  0  0  0
    9.3633   43.8352   31.4715 H   0  0  0  0  0  0  0  0  0  0  0  0
   10.7405   44.9068   31.1833 H   0  0  0  0  0  0  0  0  0  0  0  0
    7.0129   44.7163   31.5850 H   0  0  0  0  0  0  0  0  0  0  0  0
   10.3472   47.1864   30.4069 H   0  0  0  0  0  0  0  0  0  0  0  0
    5.4640   46.3029   30.5025 H   0  0  0  0  0  0  0  0  0  0  0  0
    8.8153   48.7636   29.3480 H   0  0  0  0  0  0  0  0  0  0  0  0
    7.0730   50.3217   29.1176 H   0  0  0  0  0  0  0  0  0  0  0  0
    5.4225   51.4584   27.7196 H   0  0  0  0  0  0  0  0  0  0  0  0
    4.4520   49.9495   27.5525 H   0  0  0  0  0  0  0  0  0  0  0  0
    4.6414   50.7258   29.1678 H   0  0  0  0  0  0  0  0  0  0  0  0
    8.3005   51.1913   27.2495 H   0  0  0  0  0  0  0  0  0  0  0  0
    7.5453   46.9653   24.7100 H   0  0  0  0  0  0  0  0  0  0  0  0
   10.0869   50.5446   22.8896 H   0  0  0  0  0  0  0  0  0  0  0  0
   11.3474   49.7146   23.9204 H   0  0  0  0  0  0  0  0  0  0  0  0
   11.3950   41.5477   31.4741 H   0  0  0  0  0  0  0  0  0  0  0  0
    9.8290   40.7408   31.7625 H   0  0  0  0  0  0  0  0  0  0  0  0
   11.6982   39.5114   30.3500 H   0  0  0  0  0  0  0  0  0  0  0  0
   10.1117   38.2604   32.6660 H   0  0  0  0  0  0  0  0  0  0  0  0
   13.6767   37.4557   31.2267 H   0  0  0  0  0  0  0  0  0  0  0  0
    8.8960   38.6950   30.8872 H   0  0  0  0  0  0  0  0  0  0  0  0
   11.2791   36.3072   32.4922 H   0  0  0  0  0  0  0  0  0  0  0  0
   11.8828   36.9598   29.7589 H   0  0  0  0  0  0  0  0  0  0  0  0
   12.3300   38.3539   34.7446 H   0  0  0  0  0  0  0  0  0  0  0  0
   16.7562   34.1785   32.4621 H   0  0  0  0  0  0  0  0  0  0  0  0
   15.3531   35.7360   37.5140 H   0  0  0  0  0  0  0  0  0  0  0  0
   16.6347   34.5303   37.1416 H   0  0  0  0  0  0  0  0  0  0  0  0
  1  2  2  0
  1  3  1  0
  3  4  1  0
  4  5  1  0
  6  1  1  0
  7  6  1  0
  6  8  1  0
  8  9  1  0
  9 10  2  0
 11  9  1  0
 10 12  1  0
 13 11  2  0
 12 14  2  0
 14 13  1  0
 14 15  1  0
 15 16  1  0
 16 17  1  0
 16 18  1  0
 18 19  2  0
 20 18  1  0
 19 21  1  0
 22 20  2  0
 20 23  1  0
 21 24  1  0
 21 25  2  0
 25 22  1  0
 23 26  1  0
 23 27  2  0
 24 28  1  0
 25 29  1  0
 28 29  1  0
  4 30  2  0
  4 31  1  0
 32 31  1  0
 32 33  1  0
 33 34  1  0
 33 35  1  0
 34 36  1  0
 35 37  1  0
 35 38  1  0
 38 36  1  0
 36 39  1  0
 38 40  1  0
 41 39  1  0
 42 39  1  0
 43 41  2  0
 41 44  1  0
 45 42  2  0
 46 43  1  0
 44 47  2  0
 44 45  1  0
 48 46  2  0
 48 47  1  0
 47 49  1  0
  6 50  1  1
  7 51  1  0
  7 52  1  0
  8 53  1  0
  8 54  1  0
 10 55  1  0
 11 56  1  0
 12 57  1  0
 13 58  1  0
 16 59  1  1
 17 60  1  0
 17 61  1  0
 17 62  1  0
 19 63  1  0
 22 64  1  0
 28 65  1  0
 28 66  1  0
 32 67  1  0
 32 68  1  0
 33 69  1  0
 35 70  1  0
 36 71  1  0
 37 72  1  0
 38 73  1  0
 40 74  1  0
 42 75  1  0
 46 76  1  0
 49 77  1  0
 49 78  1  0
M  CHG  3   5  -1  23   1  26  -1
M  END
>  <EmbedRMS>  (347) 
0.0818093966308

$$$$

     RDKit          3D

 78 83  0  0  0  0  0  0  0  0999 V2000
   10.2839   43.7627   33.8276 C   0  0  0  0  0  0  0  0  0  0  0  0
   11.4103   43.5863   34.3766 O   0  0  0  0  0  0  0  0  0  0  0  0
    9.3631   42.7236   33.7353 O   0  0  0  0  0  0  0  0  0  0  0  0
    9.8894   41.2249   34.2944 P   0  0  0  0  0  0  0  0  0  0  0  0
   10.3726   41.4547   35.8838 O   0  0  0  0  0  0  0  0  0  0  0  0
    9.9548   45.0700   33.2064 C   0  0  1  0  0  0  0  0  0  0  0  0
   11.0197   46.0482   33.4572 N   0  0  0  0  0  0  0  0  0  0  0  0
    9.7506   44.8512   31.6923 C   0  0  0  0  0  0  0  0  0  0  0  0
    8.7944   45.8419   31.0869 C   0  0  0  0  0  0  0  0  0  0  0  0
    7.4077   45.6003   31.1002 C   0  0  0  0  0  0  0  0  0  0  0  0
    9.2827   46.9890   30.4441 C   0  0  0  0  0  0  0  0  0  0  0  0
    6.5260   46.4995   30.4847 C   0  0  0  0  0  0  0  0  0  0  0  0
    8.4008   47.8880   29.8327 C   0  0  0  0  0  0  0  0  0  0  0  0
    7.0192   47.6559   29.8472 C   0  0  0  0  0  0  0  0  0  0  0  0
    6.1812   48.5945   29.2232 O   0  0  0  0  0  0  0  0  0  0  0  0
    4.7517   48.5403   29.1954 C   0  0  2  0  0  0  0  0  0  0  0  0
    4.2390   49.6143   28.2390 C   0  0  0  0  0  0  0  0  0  0  0  0
    4.1682   48.7710   30.5805 C   0  0  0  0  0  0  0  0  0  0  0  0
    4.7861   49.7233   31.4291 C   0  0  0  0  0  0  0  0  0  0  0  0
    2.9589   48.1318   31.0121 C   0  0  0  0  0  0  0  0  0  0  0  0
    4.2052   49.9905   32.6618 C   0  0  0  0  0  0  0  0  0  0  0  0
    2.4049   48.4562   32.2700 C   0  0  0  0  0  0  0  0  0  0  0  0
    2.2694   47.1834   30.1868 N   0  0  0  0  0  0  0  0  0  0  0  0
    4.6332   50.8656   33.6414 O   0  0  0  0  0  0  0  0  0  0  0  0
    3.0647   49.3843   33.0643 C   0  0  0  0  0  0  0  0  0  0  0  0
    0.9029   47.2709   30.0551 O   0  0  0  0  0  0  0  0  0  0  0  0
    2.8410   46.1318   29.8344 O   0  0  0  0  0  0  0  0  0  0  0  0
    3.7015   50.8012   34.7298 C   0  0  0  0  0  0  0  0  0  0  0  0
    2.7155   49.8440   34.3194 O   0  0  0  0  0  0  0  0  0  0  0  0
    8.8113   40.1834   34.2129 O   0  0  0  0  0  0  0  0  0  0  0  0
   11.2402   40.7930   33.3696 O   0  0  0  0  0  0  0  0  0  0  0  0
   10.9151   40.6903   31.9975 C   0  0  0  0  0  0  0  0  0  0  0  0
   11.5252   39.3885   31.4375 C   0  0  0  0  0  0  0  0  0  0  0  0
   12.7500   39.0873   32.0798 O   0  0  0  0  0  0  0  0  0  0  0  0
   10.6092   38.1925   31.6469 C   0  0  0  0  0  0  0  0  0  0  0  0
   12.9332   37.6792   32.0294 C   0  0  0  0  0  0  0  0  0  0  0  0
    9.6122   38.0894   30.6542 O   0  0  0  0  0  0  0  0  0  0  0  0
   11.5743   37.0144   31.7024 C   0  0  0  0  0  0  0  0  0  0  0  0
   13.4844   37.2107   33.3241 N   0  0  0  0  0  0  0  0  0  0  0  0
   11.6297   36.3238   30.4740 O   0  0  0  0  0  0  0  0  0  0  0  0
   14.4802   36.3313   33.5727 C   0  0  0  0  0  0  0  0  0  0  0  0
   13.1138   37.6267   34.5692 C   0  0  0  0  0  0  0  0  0  0  0  0
   15.2075   35.6149   32.6739 N   0  0  0  0  0  0  0  0  0  0  0  0
   14.6761   36.2303   34.9181 C   0  0  0  0  0  0  0  0  0  0  0  0
   13.8220   37.0447   35.5785 N   0  0  0  0  0  0  0  0  0  0  0  0
   16.1643   34.7600   33.1547 C   0  0  0  0  0  0  0  0  0  0  0  0
   15.6529   35.3505   35.4130 C   0  0  0  0  0  0  0  0  0  0  0  0
   16.3798   34.6315   34.5042 N   0  0  0  0  0  0  0  0  0  0  0  0
   15.9003   35.1932   36.8090 N   0  0  0  0  0  0  0  0  0  0  0  0
    9.0098   45.4349   33.6669 H   0  0  0  0  0  0  0  0  0  0  0  0
   11.9349   45.6934   33.0930 H   0  0  0  0  0  0  0  0  0  0  0  0
   11.1130   46.1994   34.4885 H   0  0  0  0  0  0  0  0  0  0  0  0
    9.3519   43.8345   31.4759 H   0  0  0  0  0  0  0  0  0  0  0  0
   10.7310   44.8932   31.1677 H   0  0  0  0  0  0  0  0  0  0  0  0
    7.0126   44.7147   31.5824 H   0  0  0  0  0  0  0  0  0  0  0  0
   10.3467   47.1893   30.4144 H   0  0  0  0  0  0  0  0  0  0  0  0
    5.4685   46.2836   30.5128 H   0  0  0  0  0  0  0  0  0  0  0  0
    8.7934   48.7709   29.3445 H   0  0  0  0  0  0  0  0  0  0  0  0
    4.4509   47.5614   28.7751 H   0  0  0  0  0  0  0  0  0  0  0  0
    4.6533   49.4416   27.2230 H   0  0  0  0  0  0  0  0  0  0  0  0
    3.1300   49.5771   28.1781 H   0  0  0  0  0  0  0  0  0  0  0  0
    4.5508   50.6241   28.5825 H   0  0  0  0  0  0  0  0  0  0  0  0
    5.6844   50.2497   31.1330 H   0  0  0  0  0  0  0  0  0  0  0  0
    1.4923   47.9904   32.6191 H   0  0  0  0  0  0  0  0  0  0  0  0
    4.2121   50.4538   35.6524 H   0  0  0  0  0  0  0  0  0  0  0  0
    3.2293   51.7931   34.8902 H   0  0  0  0  0  0  0  0  0  0  0  0
    9.8243   40.7217   31.7640 H   0  0  0  0  0  0  0  0  0  0  0  0
   11.3805   41.5528   31.4740 H   0  0  0  0  0  0  0  0  0  0  0  0
   11.7265   39.5311   30.3512 H   0  0  0  0  0  0  0  0  0  0  0  0
   10.1110   38.2746   32.6387 H   0  0  0  0  0  0  0  0  0  0  0  0
   13.6652   37.4518   31.2226 H   0  0  0  0  0  0  0  0  0  0  0  0
   10.0512   38.1143   29.7644 H   0  0  0  0  0  0  0  0  0  0  0  0
   11.2762   36.3141   32.5189 H   0  0  0  0  0  0  0  0  0  0  0  0
   10.8593   35.6977   30.4640 H   0  0  0  0  0  0  0  0  0  0  0  0
   12.3295   38.3518   34.7449 H   0  0  0  0  0  0  0  0  0  0  0  0
   16.7564   34.1779   32.4620 H   0  0  0  0  0  0  0  0  0  0  0  0
   15.3534   35.7359   37.5138 H   0  0  0  0  0  0  0  0  0  0  0  0
   16.6348   34.5300   37.1416 H   0  0  0  0  0  0  0  0  0  0  0  0
  1  2  2  0
  1  3  1  0
  3  4  1  0
  4  5  1  0
  6  1  1  0
  7  6  1  0
  6  8  1  0
  8  9  1  0
  9 10  2  0
 11  9  1  0
 10 12  1  0
 13 11  2  0
 12 14  2  0
 14 13  1  0
 14 15  1  0
 15 16  1  0
 16 17  1  0
 16 18  1  0
 18 19  2  0
 20 18  1  0
 19 21  1  0
 22 20  2  0
 20 23  1  0
 21 24  1  0
 21 25  2  0
 25 22  1  0
 23 26  1  0
 23 27  2  0
 24 28  1  0
 25 29  1  0
 28 29  1  0
  4 30  2  0
  4 31  1  0
 32 31  1  0
 32 33  1  0
 33 34  1  0
 33 35  1  0
 34 36  1  0
 35 37  1  0
 35 38  1  0
 38 36  1  0
 36 39  1  0
 38 40  1  0
 41 39  1  0
 42 39  1  0
 43 41  2  0
 41 44  1  0
 45 42  2  0
 46 43  1  0
 44 47  2  0
 44 45  1  0
 48 46  2  0
 48 47  1  0
 47 49  1  0
  6 50  1  1
  7 51  1  0
  7 52  1  0
  8 53  1  0
  8 54  1  0
 10 55  1  0
 11 56  1  0
 12 57  1  0
 13 58  1  0
 16 59  1  6
 17 60  1  0
 17 61  1  0
 17 62  1  0
 19 63  1  0
 22 64  1  0
 28 65  1  0
 28 66  1  0
 32 67  1  0
 32 68  1  0
 33 69  1  0
 35 70  1  0
 36 71  1  0
 37 72  1  0
 38 73  1  0
 40 74  1  0
 42 75  1  0
 46 76  1  0
 49 77  1  0
 49 78  1  0
M  CHG  3   5  -1  23   1  26  -1
M  END
>  <EmbedRMS>  (348) 
0.0827116386572

$$$$

     RDKit          3D

 78 83  0  0  0  0  0  0  0  0999 V2000
   10.2804   43.7664   33.8250 C   0  0  0  0  0  0  0  0  0  0  0  0
   11.4110   43.5918   34.3667 O   0  0  0  0  0  0  0  0  0  0  0  0
    9.3618   42.7250   33.7344 O   0  0  0  0  0  0  0  0  0  0  0  0
    9.8901   41.2265   34.2931 P   0  0  0  0  0  0  0  0  0  0  0  0
   10.3742   41.4563   35.8823 O   0  0  0  0  0  0  0  0  0  0  0  0
    9.9460   45.0736   33.2112 C   0  0  1  0  0  0  0  0  0  0  0  0
   11.0267   46.0292   33.4709 N   0  0  0  0  0  0  0  0  0  0  0  0
    9.7543   44.8540   31.6949 C   0  0  0  0  0  0  0  0  0  0  0  0
    8.7962   45.8411   31.0847 C   0  0  0  0  0  0  0  0  0  0  0  0
    7.4100   45.6008   31.1010 C   0  0  0  0  0  0  0  0  0  0  0  0
    9.2823   46.9875   30.4403 C   0  0  0  0  0  0  0  0  0  0  0  0
    6.5269   46.4997   30.4864 C   0  0  0  0  0  0  0  0  0  0  0  0
    8.3989   47.8861   29.8322 C   0  0  0  0  0  0  0  0  0  0  0  0
    7.0162   47.6553   29.8445 C   0  0  0  0  0  0  0  0  0  0  0  0
    6.1948   48.5996   29.2014 O   0  0  0  0  0  0  0  0  0  0  0  0
    4.7700   48.5858   29.0475 C   0  0  2  0  0  0  0  0  0  0  0  0
    4.0805   48.8841   30.3880 C   0  0  0  0  0  0  0  0  0  0  0  0
    4.2784   47.3507   28.2920 C   0  0  0  0  0  0  0  0  0  0  0  0
    3.4168   46.4053   28.9135 C   0  0  0  0  0  0  0  0  0  0  0  0
    4.6075   47.1726   26.9052 C   0  0  0  0  0  0  0  0  0  0  0  0
    2.9556   45.3292   28.1672 C   0  0  0  0  0  0  0  0  0  0  0  0
    4.0953   46.0643   26.1941 C   0  0  0  0  0  0  0  0  0  0  0  0
    5.4068   48.1288   26.1934 N   0  0  0  0  0  0  0  0  0  0  0  0
    2.1307   44.2965   28.5701 O   0  0  0  0  0  0  0  0  0  0  0  0
    3.2812   45.1651   26.8660 C   0  0  0  0  0  0  0  0  0  0  0  0
    6.6888   48.4026   26.6064 O   0  0  0  0  0  0  0  0  0  0  0  0
    5.0431   48.5194   25.0650 O   0  0  0  0  0  0  0  0  0  0  0  0
    1.9285   43.4279   27.4472 C   0  0  0  0  0  0  0  0  0  0  0  0
    2.6801   44.0203   26.3792 O   0  0  0  0  0  0  0  0  0  0  0  0
    8.8123   40.1845   34.2130 O   0  0  0  0  0  0  0  0  0  0  0  0
   11.2401   40.7949   33.3666 O   0  0  0  0  0  0  0  0  0  0  0  0
   10.9124   40.6859   31.9952 C   0  0  0  0  0  0  0  0  0  0  0  0
   11.5174   39.3786   31.4405 C   0  0  0  0  0  0  0  0  0  0  0  0
   12.7489   39.0864   32.0753 O   0  0  0  0  0  0  0  0  0  0  0  0
   10.6060   38.1867   31.6656 C   0  0  0  0  0  0  0  0  0  0  0  0
   12.9355   37.6796   32.0292 C   0  0  0  0  0  0  0  0  0  0  0  0
    9.6399   38.0903   30.6471 O   0  0  0  0  0  0  0  0  0  0  0  0
   11.5765   37.0145   31.7044 C   0  0  0  0  0  0  0  0  0  0  0  0
   13.4858   37.2125   33.3244 N   0  0  0  0  0  0  0  0  0  0  0  0
   11.6101   36.3397   30.4673 O   0  0  0  0  0  0  0  0  0  0  0  0
   14.4805   36.3319   33.5729 C   0  0  0  0  0  0  0  0  0  0  0  0
   13.1143   37.6277   34.5694 C   0  0  0  0  0  0  0  0  0  0  0  0
   15.2076   35.6153   32.6741 N   0  0  0  0  0  0  0  0  0  0  0  0
   14.6760   36.2304   34.9184 C   0  0  0  0  0  0  0  0  0  0  0  0
   13.8219   37.0449   35.5786 N   0  0  0  0  0  0  0  0  0  0  0  0
   16.1641   34.7600   33.1548 C   0  0  0  0  0  0  0  0  0  0  0  0
   15.6528   35.3505   35.4132 C   0  0  0  0  0  0  0  0  0  0  0  0
   16.3795   34.6314   34.5043 N   0  0  0  0  0  0  0  0  0  0  0  0
   15.9002   35.1931   36.8091 N   0  0  0  0  0  0  0  0  0  0  0  0
    8.9995   45.4381   33.6720 H   0  0  0  0  0  0  0  0  0  0  0  0
   11.0501   46.2277   34.4983 H   0  0  0  0  0  0  0  0  0  0  0  0
   10.7765   46.9369   33.0160 H   0  0  0  0  0  0  0  0  0  0  0  0
   10.7416   44.9078   31.1837 H   0  0  0  0  0  0  0  0  0  0  0  0
    9.3648   43.8353   31.4710 H   0  0  0  0  0  0  0  0  0  0  0  0
    7.0158   44.7164   31.5865 H   0  0  0  0  0  0  0  0  0  0  0  0
   10.3461   47.1877   30.4055 H   0  0  0  0  0  0  0  0  0  0  0  0
    5.4770   46.2766   30.5275 H   0  0  0  0  0  0  0  0  0  0  0  0
    8.7923   48.7666   29.3401 H   0  0  0  0  0  0  0  0  0  0  0  0
    4.5145   49.4554   28.4038 H   0  0  0  0  0  0  0  0  0  0  0  0
    4.3084   48.1185   31.1549 H   0  0  0  0  0  0  0  0  0  0  0  0
    4.4341   49.8639   30.7738 H   0  0  0  0  0  0  0  0  0  0  0  0
    2.9803   48.9479   30.2481 H   0  0  0  0  0  0  0  0  0  0  0  0
    3.1088   46.4890   29.9458 H   0  0  0  0  0  0  0  0  0  0  0  0
    4.3284   45.9113   25.1481 H   0  0  0  0  0  0  0  0  0  0  0  0
    2.3172   42.4126   27.6720 H   0  0  0  0  0  0  0  0  0  0  0  0
    0.8513   43.3880   27.1815 H   0  0  0  0  0  0  0  0  0  0  0  0
    9.8213   40.7199   31.7634 H   0  0  0  0  0  0  0  0  0  0  0  0
   11.3801   41.5436   31.4660 H   0  0  0  0  0  0  0  0  0  0  0  0
   11.6998   39.5040   30.3482 H   0  0  0  0  0  0  0  0  0  0  0  0
   10.1085   38.2766   32.6603 H   0  0  0  0  0  0  0  0  0  0  0  0
   13.6679   37.4521   31.2229 H   0  0  0  0  0  0  0  0  0  0  0  0
    9.0016   37.3868   30.9350 H   0  0  0  0  0  0  0  0  0  0  0  0
   11.2667   36.3062   32.5083 H   0  0  0  0  0  0  0  0  0  0  0  0
   12.1389   35.5126   30.6150 H   0  0  0  0  0  0  0  0  0  0  0  0
   12.3300   38.3529   34.7450 H   0  0  0  0  0  0  0  0  0  0  0  0
   16.7560   34.1779   32.4621 H   0  0  0  0  0  0  0  0  0  0  0  0
   16.6347   34.5298   37.1416 H   0  0  0  0  0  0  0  0  0  0  0  0
   15.3534   35.7359   37.5140 H   0  0  0  0  0  0  0  0  0  0  0  0
  1  2  2  0
  1  3  1  0
  3  4  1  0
  4  5  1  0
  6  1  1  0
  7  6  1  0
  6  8  1  0
  8  9  1  0
  9 10  2  0
 11  9  1  0
 10 12  1  0
 13 11  2  0
 12 14  2  0
 14 13  1  0
 14 15  1  0
 15 16  1  0
 16 17  1  0
 16 18  1  0
 18 19  2  0
 20 18  1  0
 19 21  1  0
 22 20  2  0
 20 23  1  0
 21 24  1  0
 21 25  2  0
 25 22  1  0
 23 26  1  0
 23 27  2  0
 24 28  1  0
 25 29  1  0
 28 29  1  0
  4 30  2  0
  4 31  1  0
 32 31  1  0
 32 33  1  0
 33 34  1  0
 33 35  1  0
 34 36  1  0
 35 37  1  0
 35 38  1  0
 38 36  1  0
 36 39  1  0
 38 40  1  0
 41 39  1  0
 42 39  1  0
 43 41  2  0
 41 44  1  0
 45 42  2  0
 46 43  1  0
 44 47  2  0
 44 45  1  0
 48 46  2  0
 48 47  1  0
 47 49  1  0
  6 50  1  1
  7 51  1  0
  7 52  1  0
  8 53  1  0
  8 54  1  0
 10 55  1  0
 11 56  1  0
 12 57  1  0
 13 58  1  0
 16 59  1  6
 17 60  1  0
 17 61  1  0
 17 62  1  0
 19 63  1  0
 22 64  1  0
 28 65  1  0
 28 66  1  0
 32 67  1  0
 32 68  1  0
 33 69  1  0
 35 70  1  0
 36 71  1  0
 37 72  1  0
 38 73  1  0
 40 74  1  0
 42 75  1  0
 46 76  1  0
 49 77  1  0
 49 78  1  0
M  CHG  3   5  -1  23   1  26  -1
M  END
>  <EmbedRMS>  (349) 
0.0822060411283

$$$$

     RDKit          3D

 78 83  0  0  0  0  0  0  0  0999 V2000
   10.2804   43.7664   33.8249 C   0  0  0  0  0  0  0  0  0  0  0  0
   11.4110   43.5918   34.3667 O   0  0  0  0  0  0  0  0  0  0  0  0
    9.3618   42.7250   33.7344 O   0  0  0  0  0  0  0  0  0  0  0  0
    9.8901   41.2265   34.2931 P   0  0  0  0  0  0  0  0  0  0  0  0
   10.3742   41.4563   35.8823 O   0  0  0  0  0  0  0  0  0  0  0  0
    9.9460   45.0736   33.2112 C   0  0  1  0  0  0  0  0  0  0  0  0
   11.0268   46.0292   33.4710 N   0  0  0  0  0  0  0  0  0  0  0  0
    9.7543   44.8542   31.6949 C   0  0  0  0  0  0  0  0  0  0  0  0
    8.7961   45.8413   31.0851 C   0  0  0  0  0  0  0  0  0  0  0  0
    7.4099   45.6005   31.1013 C   0  0  0  0  0  0  0  0  0  0  0  0
    9.2822   46.9876   30.4400 C   0  0  0  0  0  0  0  0  0  0  0  0
    6.5265   46.4990   30.4869 C   0  0  0  0  0  0  0  0  0  0  0  0
    8.3991   47.8861   29.8311 C   0  0  0  0  0  0  0  0  0  0  0  0
    7.0168   47.6554   29.8449 C   0  0  0  0  0  0  0  0  0  0  0  0
    6.1913   48.5950   29.2000 O   0  0  0  0  0  0  0  0  0  0  0  0
    4.7603   48.5860   29.1064 C   0  0  2  0  0  0  0  0  0  0  0  0
    4.1415   48.9228   30.4725 C   0  0  0  0  0  0  0  0  0  0  0  0
    4.2471   47.3201   28.4176 C   0  0  0  0  0  0  0  0  0  0  0  0
    3.1933   46.5550   28.9887 C   0  0  0  0  0  0  0  0  0  0  0  0
    4.8430   46.8660   27.1905 C   0  0  0  0  0  0  0  0  0  0  0  0
    2.8091   45.3768   28.3631 C   0  0  0  0  0  0  0  0  0  0  0  0
    4.4166   45.6495   26.6097 C   0  0  0  0  0  0  0  0  0  0  0  0
    5.8790   47.6144   26.5316 N   0  0  0  0  0  0  0  0  0  0  0  0
    1.8304   44.4809   28.7488 O   0  0  0  0  0  0  0  0  0  0  0  0
    3.3976   44.9408   27.2276 C   0  0  0  0  0  0  0  0  0  0  0  0
    5.7563   48.9734   26.3595 O   0  0  0  0  0  0  0  0  0  0  0  0
    6.8053   47.0159   25.9465 O   0  0  0  0  0  0  0  0  0  0  0  0
    1.8051   43.4137   27.7913 C   0  0  0  0  0  0  0  0  0  0  0  0
    2.8215   43.7475   26.8365 O   0  0  0  0  0  0  0  0  0  0  0  0
    8.8123   40.1845   34.2130 O   0  0  0  0  0  0  0  0  0  0  0  0
   11.2401   40.7949   33.3666 O   0  0  0  0  0  0  0  0  0  0  0  0
   10.9124   40.6859   31.9952 C   0  0  0  0  0  0  0  0  0  0  0  0
   11.5175   39.3787   31.4405 C   0  0  0  0  0  0  0  0  0  0  0  0
   12.7490   39.0864   32.0753 O   0  0  0  0  0  0  0  0  0  0  0  0
   10.6060   38.1868   31.6656 C   0  0  0  0  0  0  0  0  0  0  0  0
   12.9355   37.6797   32.0292 C   0  0  0  0  0  0  0  0  0  0  0  0
    9.6399   38.0903   30.6471 O   0  0  0  0  0  0  0  0  0  0  0  0
   11.5765   37.0146   31.7043 C   0  0  0  0  0  0  0  0  0  0  0  0
   13.4858   37.2125   33.3244 N   0  0  0  0  0  0  0  0  0  0  0  0
   11.6102   36.3397   30.4672 O   0  0  0  0  0  0  0  0  0  0  0  0
   14.4805   36.3319   33.5729 C   0  0  0  0  0  0  0  0  0  0  0  0
   13.1143   37.6277   34.5694 C   0  0  0  0  0  0  0  0  0  0  0  0
   15.2076   35.6153   32.6741 N   0  0  0  0  0  0  0  0  0  0  0  0
   14.6760   36.2304   34.9184 C   0  0  0  0  0  0  0  0  0  0  0  0
   13.8219   37.0449   35.5786 N   0  0  0  0  0  0  0  0  0  0  0  0
   16.1641   34.7600   33.1548 C   0  0  0  0  0  0  0  0  0  0  0  0
   15.6527   35.3505   35.4132 C   0  0  0  0  0  0  0  0  0  0  0  0
   16.3795   34.6314   34.5043 N   0  0  0  0  0  0  0  0  0  0  0  0
   15.9001   35.1931   36.8091 N   0  0  0  0  0  0  0  0  0  0  0  0
    8.9996   45.4382   33.6721 H   0  0  0  0  0  0  0  0  0  0  0  0
   11.0502   46.2276   34.4984 H   0  0  0  0  0  0  0  0  0  0  0  0
   10.7766   46.9369   33.0161 H   0  0  0  0  0  0  0  0  0  0  0  0
   10.7415   44.9080   31.1837 H   0  0  0  0  0  0  0  0  0  0  0  0
    9.3648   43.8355   31.4709 H   0  0  0  0  0  0  0  0  0  0  0  0
    7.0160   44.7151   31.5853 H   0  0  0  0  0  0  0  0  0  0  0  0
   10.3461   47.1875   30.4048 H   0  0  0  0  0  0  0  0  0  0  0  0
    5.4742   46.2721   30.5201 H   0  0  0  0  0  0  0  0  0  0  0  0
    8.7924   48.7660   29.3378 H   0  0  0  0  0  0  0  0  0  0  0  0
    4.4765   49.4339   28.4485 H   0  0  0  0  0  0  0  0  0  0  0  0
    3.0535   49.1192   30.3647 H   0  0  0  0  0  0  0  0  0  0  0  0
    4.6123   49.8451   30.8741 H   0  0  0  0  0  0  0  0  0  0  0  0
    4.2963   48.1096   31.2090 H   0  0  0  0  0  0  0  0  0  0  0  0
    2.6916   46.8412   29.9013 H   0  0  0  0  0  0  0  0  0  0  0  0
    4.8545   45.2789   25.6918 H   0  0  0  0  0  0  0  0  0  0  0  0
    0.8133   43.3666   27.2947 H   0  0  0  0  0  0  0  0  0  0  0  0
    2.0451   42.4488   28.2851 H   0  0  0  0  0  0  0  0  0  0  0  0
    9.8214   40.7199   31.7634 H   0  0  0  0  0  0  0  0  0  0  0  0
   11.3801   41.5436   31.4660 H   0  0  0  0  0  0  0  0  0  0  0  0
   11.6999   39.5041   30.3481 H   0  0  0  0  0  0  0  0  0  0  0  0
   10.1085   38.2767   32.6603 H   0  0  0  0  0  0  0  0  0  0  0  0
   13.6680   37.4521   31.2229 H   0  0  0  0  0  0  0  0  0  0  0  0
    9.0016   37.3868   30.9349 H   0  0  0  0  0  0  0  0  0  0  0  0
   11.2667   36.3062   32.5083 H   0  0  0  0  0  0  0  0  0  0  0  0
   12.1389   35.5126   30.6149 H   0  0  0  0  0  0  0  0  0  0  0  0
   12.3300   38.3529   34.7449 H   0  0  0  0  0  0  0  0  0  0  0  0
   16.7560   34.1779   32.4620 H   0  0  0  0  0  0  0  0  0  0  0  0
   16.6347   34.5298   37.1416 H   0  0  0  0  0  0  0  0  0  0  0  0
   15.3534   35.7359   37.5140 H   0  0  0  0  0  0  0  0  0  0  0  0
  1  2  2  0
  1  3  1  0
  3  4  1  0
  4  5  1  0
  6  1  1  0
  7  6  1  0
  6  8  1  0
  8  9  1  0
  9 10  2  0
 11  9  1  0
 10 12  1  0
 13 11  2  0
 12 14  2  0
 14 13  1  0
 14 15  1  0
 15 16  1  0
 16 17  1  0
 16 18  1  0
 18 19  2  0
 20 18  1  0
 19 21  1  0
 22 20  2  0
 20 23  1  0
 21 24  1  0
 21 25  2  0
 25 22  1  0
 23 26  1  0
 23 27  2  0
 24 28  1  0
 25 29  1  0
 28 29  1  0
  4 30  2  0
  4 31  1  0
 32 31  1  0
 32 33  1  0
 33 34  1  0
 33 35  1  0
 34 36  1  0
 35 37  1  0
 35 38  1  0
 38 36  1  0
 36 39  1  0
 38 40  1  0
 41 39  1  0
 42 39  1  0
 43 41  2  0
 41 44  1  0
 45 42  2  0
 46 43  1  0
 44 47  2  0
 44 45  1  0
 48 46  2  0
 48 47  1  0
 47 49  1  0
  6 50  1  1
  7 51  1  0
  7 52  1  0
  8 53  1  0
  8 54  1  0
 10 55  1  0
 11 56  1  0
 12 57  1  0
 13 58  1  0
 16 59  1  6
 17 60  1  0
 17 61  1  0
 17 62  1  0
 19 63  1  0
 22 64  1  0
 28 65  1  0
 28 66  1  0
 32 67  1  0
 32 68  1  0
 33 69  1  0
 35 70  1  0
 36 71  1  0
 37 72  1  0
 38 73  1  0
 40 74  1  0
 42 75  1  0
 46 76  1  0
 49 77  1  0
 49 78  1  0
M  CHG  3   5  -1  23   1  26  -1
M  END
>  <EmbedRMS>  (350) 
0.0822024046693

$$$$

     RDKit          3D

 78 83  0  0  0  0  0  0  0  0999 V2000
   10.2835   43.7662   33.8256 C   0  0  0  0  0  0  0  0  0  0  0  0
   11.4102   43.5930   34.3752 O   0  0  0  0  0  0  0  0  0  0  0  0
    9.3637   42.7255   33.7348 O   0  0  0  0  0  0  0  0  0  0  0  0
    9.8906   41.2266   34.2933 P   0  0  0  0  0  0  0  0  0  0  0  0
   10.3743   41.4557   35.8827 O   0  0  0  0  0  0  0  0  0  0  0  0
    9.9548   45.0695   33.2034 C   0  0  1  0  0  0  0  0  0  0  0  0
   11.0274   46.0322   33.4759 N   0  0  0  0  0  0  0  0  0  0  0  0
    9.7472   44.8483   31.6874 C   0  0  0  0  0  0  0  0  0  0  0  0
    8.7927   45.8407   31.0840 C   0  0  0  0  0  0  0  0  0  0  0  0
    7.4060   45.6012   31.0996 C   0  0  0  0  0  0  0  0  0  0  0  0
    9.2817   46.9879   30.4424 C   0  0  0  0  0  0  0  0  0  0  0  0
    6.5241   46.5015   30.4858 C   0  0  0  0  0  0  0  0  0  0  0  0
    8.4004   47.8884   29.8333 C   0  0  0  0  0  0  0  0  0  0  0  0
    7.0185   47.6562   29.8439 C   0  0  0  0  0  0  0  0  0  0  0  0
    6.1866   48.5982   29.2157 O   0  0  0  0  0  0  0  0  0  0  0  0
    4.7730   48.4797   29.0258 C   0  0  2  0  0  0  0  0  0  0  0  0
    4.4727   47.4643   27.9174 C   0  0  0  0  0  0  0  0  0  0  0  0
    4.2073   49.8348   28.6441 C   0  0  0  0  0  0  0  0  0  0  0  0
    4.9082   50.6169   27.6925 C   0  0  0  0  0  0  0  0  0  0  0  0
    3.0117   50.3619   29.2394 C   0  0  0  0  0  0  0  0  0  0  0  0
    4.4337   51.8882   27.3984 C   0  0  0  0  0  0  0  0  0  0  0  0
    2.5880   51.6703   28.9135 C   0  0  0  0  0  0  0  0  0  0  0  0
    2.2105   49.5882   30.1462 N   0  0  0  0  0  0  0  0  0  0  0  0
    4.9572   52.8189   26.5216 O   0  0  0  0  0  0  0  0  0  0  0  0
    3.3263   52.3948   27.9872 C   0  0  0  0  0  0  0  0  0  0  0  0
    1.5689   50.2109   31.1920 O   0  0  0  0  0  0  0  0  0  0  0  0
    1.8962   48.4142   29.8616 O   0  0  0  0  0  0  0  0  0  0  0  0
    4.1226   53.9845   26.5636 C   0  0  0  0  0  0  0  0  0  0  0  0
    3.0932   53.6709   27.5117 O   0  0  0  0  0  0  0  0  0  0  0  0
    8.8122   40.1851   34.2127 O   0  0  0  0  0  0  0  0  0  0  0  0
   11.2406   40.7945   33.3670 O   0  0  0  0  0  0  0  0  0  0  0  0
   10.9134   40.6866   31.9954 C   0  0  0  0  0  0  0  0  0  0  0  0
   11.5167   39.3787   31.4404 C   0  0  0  0  0  0  0  0  0  0  0  0
   12.7486   39.0849   32.0734 O   0  0  0  0  0  0  0  0  0  0  0  0
   10.6039   38.1884   31.6669 C   0  0  0  0  0  0  0  0  0  0  0  0
   12.9329   37.6776   32.0284 C   0  0  0  0  0  0  0  0  0  0  0  0
    9.6374   38.0938   30.6484 O   0  0  0  0  0  0  0  0  0  0  0  0
   11.5737   37.0141   31.7055 C   0  0  0  0  0  0  0  0  0  0  0  0
   13.4853   37.2120   33.3238 N   0  0  0  0  0  0  0  0  0  0  0  0
   11.6210   36.3379   30.4683 O   0  0  0  0  0  0  0  0  0  0  0  0
   14.4804   36.3319   33.5726 C   0  0  0  0  0  0  0  0  0  0  0  0
   13.1141   37.6275   34.5689 C   0  0  0  0  0  0  0  0  0  0  0  0
   15.2076   35.6152   32.6740 N   0  0  0  0  0  0  0  0  0  0  0  0
   14.6761   36.2306   34.9181 C   0  0  0  0  0  0  0  0  0  0  0  0
   13.8218   37.0451   35.5783 N   0  0  0  0  0  0  0  0  0  0  0  0
   16.1642   34.7600   33.1548 C   0  0  0  0  0  0  0  0  0  0  0  0
   15.6528   35.3507   35.4131 C   0  0  0  0  0  0  0  0  0  0  0  0
   16.3795   34.6315   34.5043 N   0  0  0  0  0  0  0  0  0  0  0  0
   15.9001   35.1933   36.8090 N   0  0  0  0  0  0  0  0  0  0  0  0
    9.0120   45.4317   33.6711 H   0  0  0  0  0  0  0  0  0  0  0  0
   10.7261   46.9688   33.1214 H   0  0  0  0  0  0  0  0  0  0  0  0
   11.8908   45.7659   32.9475 H   0  0  0  0  0  0  0  0  0  0  0  0
   10.7237   44.8823   31.1557 H   0  0  0  0  0  0  0  0  0  0  0  0
    9.3427   43.8330   31.4757 H   0  0  0  0  0  0  0  0  0  0  0  0
    7.0105   44.7168   31.5837 H   0  0  0  0  0  0  0  0  0  0  0  0
   10.3459   47.1866   30.4112 H   0  0  0  0  0  0  0  0  0  0  0  0
    5.4665   46.2857   30.5238 H   0  0  0  0  0  0  0  0  0  0  0  0
    8.7941   48.7707   29.3447 H   0  0  0  0  0  0  0  0  0  0  0  0
    4.3180   48.1398   29.9768 H   0  0  0  0  0  0  0  0  0  0  0  0
    4.8352   46.4558   28.2023 H   0  0  0  0  0  0  0  0  0  0  0  0
    4.9743   47.7616   26.9718 H   0  0  0  0  0  0  0  0  0  0  0  0
    3.3783   47.4012   27.7395 H   0  0  0  0  0  0  0  0  0  0  0  0
    5.8061   50.2517   27.2099 H   0  0  0  0  0  0  0  0  0  0  0  0
    1.6937   52.0980   29.3482 H   0  0  0  0  0  0  0  0  0  0  0  0
    3.6781   54.1747   25.5643 H   0  0  0  0  0  0  0  0  0  0  0  0
    4.7069   54.8630   26.9089 H   0  0  0  0  0  0  0  0  0  0  0  0
   11.3828   41.5438   31.4669 H   0  0  0  0  0  0  0  0  0  0  0  0
    9.8225   40.7225   31.7631 H   0  0  0  0  0  0  0  0  0  0  0  0
   11.6979   39.5037   30.3478 H   0  0  0  0  0  0  0  0  0  0  0  0
   10.1084   38.2787   32.6627 H   0  0  0  0  0  0  0  0  0  0  0  0
   13.6638   37.4472   31.2214 H   0  0  0  0  0  0  0  0  0  0  0  0
    8.9763   37.4191   30.9532 H   0  0  0  0  0  0  0  0  0  0  0  0
   11.2821   36.3054   32.5172 H   0  0  0  0  0  0  0  0  0  0  0  0
   10.8658   35.6935   30.4652 H   0  0  0  0  0  0  0  0  0  0  0  0
   12.3293   38.3523   34.7445 H   0  0  0  0  0  0  0  0  0  0  0  0
   16.7561   34.1778   32.4621 H   0  0  0  0  0  0  0  0  0  0  0  0
   15.3533   35.7361   37.5138 H   0  0  0  0  0  0  0  0  0  0  0  0
   16.6345   34.5300   37.1416 H   0  0  0  0  0  0  0  0  0  0  0  0
  1  2  2  0
  1  3  1  0
  3  4  1  0
  4  5  1  0
  6  1  1  0
  7  6  1  0
  6  8  1  0
  8  9  1  0
  9 10  2  0
 11  9  1  0
 10 12  1  0
 13 11  2  0
 12 14  2  0
 14 13  1  0
 14 15  1  0
 15 16  1  0
 16 17  1  0
 16 18  1  0
 18 19  2  0
 20 18  1  0
 19 21  1  0
 22 20  2  0
 20 23  1  0
 21 24  1  0
 21 25  2  0
 25 22  1  0
 23 26  1  0
 23 27  2  0
 24 28  1  0
 25 29  1  0
 28 29  1  0
  4 30  2  0
  4 31  1  0
 32 31  1  0
 32 33  1  0
 33 34  1  0
 33 35  1  0
 34 36  1  0
 35 37  1  0
 35 38  1  0
 38 36  1  0
 36 39  1  0
 38 40  1  0
 41 39  1  0
 42 39  1  0
 43 41  2  0
 41 44  1  0
 45 42  2  0
 46 43  1  0
 44 47  2  0
 44 45  1  0
 48 46  2  0
 48 47  1  0
 47 49  1  0
  6 50  1  1
  7 51  1  0
  7 52  1  0
  8 53  1  0
  8 54  1  0
 10 55  1  0
 11 56  1  0
 12 57  1  0
 13 58  1  0
 16 59  1  1
 17 60  1  0
 17 61  1  0
 17 62  1  0
 19 63  1  0
 22 64  1  0
 28 65  1  0
 28 66  1  0
 32 67  1  0
 32 68  1  0
 33 69  1  0
 35 70  1  0
 36 71  1  0
 37 72  1  0
 38 73  1  0
 40 74  1  0
 42 75  1  0
 46 76  1  0
 49 77  1  0
 49 78  1  0
M  CHG  3   5  -1  23   1  26  -1
M  END
>  <EmbedRMS>  (351) 
0.0825440996438

$$$$

     RDKit          3D

 78 83  0  0  0  0  0  0  0  0999 V2000
   10.2833   43.7664   33.8257 C   0  0  0  0  0  0  0  0  0  0  0  0
   11.4101   43.5932   34.3751 O   0  0  0  0  0  0  0  0  0  0  0  0
    9.3637   42.7256   33.7349 O   0  0  0  0  0  0  0  0  0  0  0  0
    9.8903   41.2268   34.2942 P   0  0  0  0  0  0  0  0  0  0  0  0
   10.3735   41.4562   35.8836 O   0  0  0  0  0  0  0  0  0  0  0  0
    9.9542   45.0698   33.2038 C   0  0  1  0  0  0  0  0  0  0  0  0
   11.0268   46.0326   33.4760 N   0  0  0  0  0  0  0  0  0  0  0  0
    9.7464   44.8488   31.6879 C   0  0  0  0  0  0  0  0  0  0  0  0
    8.7920   45.8417   31.0850 C   0  0  0  0  0  0  0  0  0  0  0  0
    7.4046   45.6001   31.0977 C   0  0  0  0  0  0  0  0  0  0  0  0
    9.2825   46.9878   30.4392 C   0  0  0  0  0  0  0  0  0  0  0  0
    6.5258   46.5001   30.4800 C   0  0  0  0  0  0  0  0  0  0  0  0
    8.4018   47.8881   29.8277 C   0  0  0  0  0  0  0  0  0  0  0  0
    7.0191   47.6556   29.8586 C   0  0  0  0  0  0  0  0  0  0  0  0
    6.1264   48.5499   29.2592 O   0  0  0  0  0  0  0  0  0  0  0  0
    5.7116   49.7990   29.8297 C   0  0  2  0  0  0  0  0  0  0  0  0
    6.8676   50.8008   29.9336 C   0  0  0  0  0  0  0  0  0  0  0  0
    4.9987   49.5982   31.1647 C   0  0  0  0  0  0  0  0  0  0  0  0
    5.7392   49.1388   32.2851 C   0  0  0  0  0  0  0  0  0  0  0  0
    3.5829   49.7941   31.3054 C   0  0  0  0  0  0  0  0  0  0  0  0
    5.0613   48.8532   33.4622 C   0  0  0  0  0  0  0  0  0  0  0  0
    2.9456   49.4725   32.5242 C   0  0  0  0  0  0  0  0  0  0  0  0
    2.7839   50.3289   30.2417 N   0  0  0  0  0  0  0  0  0  0  0  0
    5.5745   48.3828   34.6555 O   0  0  0  0  0  0  0  0  0  0  0  0
    3.7230   49.0073   33.5752 C   0  0  0  0  0  0  0  0  0  0  0  0
    1.5544   49.7737   29.9723 O   0  0  0  0  0  0  0  0  0  0  0  0
    3.0552   51.4509   29.7667 O   0  0  0  0  0  0  0  0  0  0  0  0
    4.4856   48.2332   35.5766 C   0  0  0  0  0  0  0  0  0  0  0  0
    3.3217   48.6437   34.8462 O   0  0  0  0  0  0  0  0  0  0  0  0
    8.8122   40.1851   34.2131 O   0  0  0  0  0  0  0  0  0  0  0  0
   11.2407   40.7940   33.3693 O   0  0  0  0  0  0  0  0  0  0  0  0
   10.9151   40.6906   31.9974 C   0  0  0  0  0  0  0  0  0  0  0  0
   11.5252   39.3886   31.4375 C   0  0  0  0  0  0  0  0  0  0  0  0
   12.7500   39.0874   32.0799 O   0  0  0  0  0  0  0  0  0  0  0  0
   10.6092   38.1926   31.6470 C   0  0  0  0  0  0  0  0  0  0  0  0
   12.9332   37.6793   32.0294 C   0  0  0  0  0  0  0  0  0  0  0  0
    9.6122   38.0895   30.6542 O   0  0  0  0  0  0  0  0  0  0  0  0
   11.5743   37.0145   31.7024 C   0  0  0  0  0  0  0  0  0  0  0  0
   13.4844   37.2108   33.3241 N   0  0  0  0  0  0  0  0  0  0  0  0
   11.6297   36.3239   30.4740 O   0  0  0  0  0  0  0  0  0  0  0  0
   14.4802   36.3313   33.5727 C   0  0  0  0  0  0  0  0  0  0  0  0
   13.1138   37.6267   34.5692 C   0  0  0  0  0  0  0  0  0  0  0  0
   15.2075   35.6149   32.6739 N   0  0  0  0  0  0  0  0  0  0  0  0
   14.6761   36.2303   34.9181 C   0  0  0  0  0  0  0  0  0  0  0  0
   13.8220   37.0447   35.5785 N   0  0  0  0  0  0  0  0  0  0  0  0
   16.1643   34.7600   33.1547 C   0  0  0  0  0  0  0  0  0  0  0  0
   15.6529   35.3505   35.4130 C   0  0  0  0  0  0  0  0  0  0  0  0
   16.3798   34.6315   34.5042 N   0  0  0  0  0  0  0  0  0  0  0  0
   15.9003   35.1932   36.8090 N   0  0  0  0  0  0  0  0  0  0  0  0
    9.0115   45.4320   33.6716 H   0  0  0  0  0  0  0  0  0  0  0  0
   10.7251   46.9692   33.1218 H   0  0  0  0  0  0  0  0  0  0  0  0
   11.8901   45.7666   32.9472 H   0  0  0  0  0  0  0  0  0  0  0  0
    9.3414   43.8337   31.4762 H   0  0  0  0  0  0  0  0  0  0  0  0
   10.7228   44.8825   31.1560 H   0  0  0  0  0  0  0  0  0  0  0  0
    7.0076   44.7150   31.5792 H   0  0  0  0  0  0  0  0  0  0  0  0
   10.3473   47.1821   30.4017 H   0  0  0  0  0  0  0  0  0  0  0  0
    5.4604   46.3088   30.4982 H   0  0  0  0  0  0  0  0  0  0  0  0
    8.7978   48.7574   29.3201 H   0  0  0  0  0  0  0  0  0  0  0  0
    5.0142   50.2331   29.0902 H   0  0  0  0  0  0  0  0  0  0  0  0
    6.4798   51.7889   30.2612 H   0  0  0  0  0  0  0  0  0  0  0  0
    7.6376   50.4692   30.6587 H   0  0  0  0  0  0  0  0  0  0  0  0
    7.3464   50.9248   28.9392 H   0  0  0  0  0  0  0  0  0  0  0  0
    6.8082   48.9829   32.2417 H   0  0  0  0  0  0  0  0  0  0  0  0
    1.8789   49.6046   32.6530 H   0  0  0  0  0  0  0  0  0  0  0  0
    4.6359   48.8901   36.4589 H   0  0  0  0  0  0  0  0  0  0  0  0
    4.3885   47.1717   35.8872 H   0  0  0  0  0  0  0  0  0  0  0  0
   11.3802   41.5529   31.4733 H   0  0  0  0  0  0  0  0  0  0  0  0
    9.8243   40.7216   31.7643 H   0  0  0  0  0  0  0  0  0  0  0  0
   11.7266   39.5311   30.3513 H   0  0  0  0  0  0  0  0  0  0  0  0
   10.1110   38.2747   32.6387 H   0  0  0  0  0  0  0  0  0  0  0  0
   13.6652   37.4519   31.2226 H   0  0  0  0  0  0  0  0  0  0  0  0
   10.0511   38.1143   29.7645 H   0  0  0  0  0  0  0  0  0  0  0  0
   11.2761   36.3142   32.5189 H   0  0  0  0  0  0  0  0  0  0  0  0
   10.8593   35.6978   30.4640 H   0  0  0  0  0  0  0  0  0  0  0  0
   12.3295   38.3518   34.7449 H   0  0  0  0  0  0  0  0  0  0  0  0
   16.7564   34.1780   32.4620 H   0  0  0  0  0  0  0  0  0  0  0  0
   16.6349   34.5300   37.1415 H   0  0  0  0  0  0  0  0  0  0  0  0
   15.3534   35.7359   37.5138 H   0  0  0  0  0  0  0  0  0  0  0  0
  1  2  2  0
  1  3  1  0
  3  4  1  0
  4  5  1  0
  6  1  1  0
  7  6  1  0
  6  8  1  0
  8  9  1  0
  9 10  2  0
 11  9  1  0
 10 12  1  0
 13 11  2  0
 12 14  2  0
 14 13  1  0
 14 15  1  0
 15 16  1  0
 16 17  1  0
 16 18  1  0
 18 19  2  0
 20 18  1  0
 19 21  1  0
 22 20  2  0
 20 23  1  0
 21 24  1  0
 21 25  2  0
 25 22  1  0
 23 26  1  0
 23 27  2  0
 24 28  1  0
 25 29  1  0
 28 29  1  0
  4 30  2  0
  4 31  1  0
 32 31  1  0
 32 33  1  0
 33 34  1  0
 33 35  1  0
 34 36  1  0
 35 37  1  0
 35 38  1  0
 38 36  1  0
 36 39  1  0
 38 40  1  0
 41 39  1  0
 42 39  1  0
 43 41  2  0
 41 44  1  0
 45 42  2  0
 46 43  1  0
 44 47  2  0
 44 45  1  0
 48 46  2  0
 48 47  1  0
 47 49  1  0
  6 50  1  1
  7 51  1  0
  7 52  1  0
  8 53  1  0
  8 54  1  0
 10 55  1  0
 11 56  1  0
 12 57  1  0
 13 58  1  0
 16 59  1  6
 17 60  1  0
 17 61  1  0
 17 62  1  0
 19 63  1  0
 22 64  1  0
 28 65  1  0
 28 66  1  0
 32 67  1  0
 32 68  1  0
 33 69  1  0
 35 70  1  0
 36 71  1  0
 37 72  1  0
 38 73  1  0
 40 74  1  0
 42 75  1  0
 46 76  1  0
 49 77  1  0
 49 78  1  0
M  CHG  3   5  -1  23   1  26  -1
M  END
>  <EmbedRMS>  (352) 
0.0819144043798

$$$$

     RDKit          3D

 78 83  0  0  0  0  0  0  0  0999 V2000
   10.2833   43.7664   33.8256 C   0  0  0  0  0  0  0  0  0  0  0  0
   11.4100   43.5933   34.3751 O   0  0  0  0  0  0  0  0  0  0  0  0
    9.3637   42.7256   33.7348 O   0  0  0  0  0  0  0  0  0  0  0  0
    9.8903   41.2268   34.2942 P   0  0  0  0  0  0  0  0  0  0  0  0
   10.3736   41.4562   35.8836 O   0  0  0  0  0  0  0  0  0  0  0  0
    9.9543   45.0698   33.2037 C   0  0  1  0  0  0  0  0  0  0  0  0
   11.0268   46.0326   33.4760 N   0  0  0  0  0  0  0  0  0  0  0  0
    9.7465   44.8489   31.6877 C   0  0  0  0  0  0  0  0  0  0  0  0
    8.7921   45.8415   31.0846 C   0  0  0  0  0  0  0  0  0  0  0  0
    7.4044   45.6001   31.0981 C   0  0  0  0  0  0  0  0  0  0  0  0
    9.2824   46.9884   30.4396 C   0  0  0  0  0  0  0  0  0  0  0  0
    6.5254   46.5003   30.4810 C   0  0  0  0  0  0  0  0  0  0  0  0
    8.4013   47.8887   29.8286 C   0  0  0  0  0  0  0  0  0  0  0  0
    7.0203   47.6543   29.8567 C   0  0  0  0  0  0  0  0  0  0  0  0
    6.1403   48.5566   29.2520 O   0  0  0  0  0  0  0  0  0  0  0  0
    5.5252   49.6463   29.9473 C   0  0  2  0  0  0  0  0  0  0  0  0
    6.5501   50.7409   30.2778 C   0  0  0  0  0  0  0  0  0  0  0  0
    4.7394   49.1583   31.1607 C   0  0  0  0  0  0  0  0  0  0  0  0
    5.4045   48.9518   32.3979 C   0  0  0  0  0  0  0  0  0  0  0  0
    3.3320   48.8896   31.0759 C   0  0  0  0  0  0  0  0  0  0  0  0
    4.6577   48.5477   33.4959 C   0  0  0  0  0  0  0  0  0  0  0  0
    2.6210   48.5005   32.2346 C   0  0  0  0  0  0  0  0  0  0  0  0
    2.6264   48.9648   29.8267 N   0  0  0  0  0  0  0  0  0  0  0  0
    5.0920   48.2959   34.7831 O   0  0  0  0  0  0  0  0  0  0  0  0
    3.3242   48.3391   33.4200 C   0  0  0  0  0  0  0  0  0  0  0  0
    3.1517   48.3731   28.7011 O   0  0  0  0  0  0  0  0  0  0  0  0
    1.4442   49.3652   29.8004 O   0  0  0  0  0  0  0  0  0  0  0  0
    3.9550   47.9052   35.5649 C   0  0  0  0  0  0  0  0  0  0  0  0
    2.8468   47.9460   34.6555 O   0  0  0  0  0  0  0  0  0  0  0  0
    8.8122   40.1851   34.2131 O   0  0  0  0  0  0  0  0  0  0  0  0
   11.2407   40.7940   33.3693 O   0  0  0  0  0  0  0  0  0  0  0  0
   10.9151   40.6906   31.9974 C   0  0  0  0  0  0  0  0  0  0  0  0
   11.5252   39.3887   31.4375 C   0  0  0  0  0  0  0  0  0  0  0  0
   12.7500   39.0874   32.0799 O   0  0  0  0  0  0  0  0  0  0  0  0
   10.6092   38.1926   31.6470 C   0  0  0  0  0  0  0  0  0  0  0  0
   12.9332   37.6793   32.0294 C   0  0  0  0  0  0  0  0  0  0  0  0
    9.6122   38.0895   30.6543 O   0  0  0  0  0  0  0  0  0  0  0  0
   11.5743   37.0145   31.7024 C   0  0  0  0  0  0  0  0  0  0  0  0
   13.4845   37.2108   33.3241 N   0  0  0  0  0  0  0  0  0  0  0  0
   11.6297   36.3239   30.4741 O   0  0  0  0  0  0  0  0  0  0  0  0
   14.4802   36.3313   33.5726 C   0  0  0  0  0  0  0  0  0  0  0  0
   13.1138   37.6266   34.5692 C   0  0  0  0  0  0  0  0  0  0  0  0
   15.2075   35.6149   32.6739 N   0  0  0  0  0  0  0  0  0  0  0  0
   14.6761   36.2302   34.9181 C   0  0  0  0  0  0  0  0  0  0  0  0
   13.8220   37.0447   35.5784 N   0  0  0  0  0  0  0  0  0  0  0  0
   16.1643   34.7599   33.1547 C   0  0  0  0  0  0  0  0  0  0  0  0
   15.6529   35.3505   35.4130 C   0  0  0  0  0  0  0  0  0  0  0  0
   16.3798   34.6315   34.5042 N   0  0  0  0  0  0  0  0  0  0  0  0
   15.9002   35.1932   36.8090 N   0  0  0  0  0  0  0  0  0  0  0  0
    9.0115   45.4320   33.6714 H   0  0  0  0  0  0  0  0  0  0  0  0
   11.8901   45.7666   32.9474 H   0  0  0  0  0  0  0  0  0  0  0  0
   10.7251   46.9692   33.1218 H   0  0  0  0  0  0  0  0  0  0  0  0
   10.7230   44.8828   31.1559 H   0  0  0  0  0  0  0  0  0  0  0  0
    9.3418   43.8337   31.4760 H   0  0  0  0  0  0  0  0  0  0  0  0
    7.0075   44.7147   31.5792 H   0  0  0  0  0  0  0  0  0  0  0  0
   10.3469   47.1852   30.4058 H   0  0  0  0  0  0  0  0  0  0  0  0
    5.4604   46.3060   30.4953 H   0  0  0  0  0  0  0  0  0  0  0  0
    8.7914   48.7689   29.3338 H   0  0  0  0  0  0  0  0  0  0  0  0
    4.8218   50.1317   29.2397 H   0  0  0  0  0  0  0  0  0  0  0  0
    6.0605   51.5668   30.8366 H   0  0  0  0  0  0  0  0  0  0  0  0
    6.9679   51.1545   29.3354 H   0  0  0  0  0  0  0  0  0  0  0  0
    7.3948   50.3479   30.8783 H   0  0  0  0  0  0  0  0  0  0  0  0
    6.4698   49.0938   32.5098 H   0  0  0  0  0  0  0  0  0  0  0  0
    1.5588   48.2949   32.2021 H   0  0  0  0  0  0  0  0  0  0  0  0
    3.7952   48.6235   36.3962 H   0  0  0  0  0  0  0  0  0  0  0  0
    4.0929   46.8749   35.9549 H   0  0  0  0  0  0  0  0  0  0  0  0
   11.3803   41.5529   31.4733 H   0  0  0  0  0  0  0  0  0  0  0  0
    9.8242   40.7217   31.7643 H   0  0  0  0  0  0  0  0  0  0  0  0
   11.7266   39.5311   30.3513 H   0  0  0  0  0  0  0  0  0  0  0  0
   10.1110   38.2748   32.6387 H   0  0  0  0  0  0  0  0  0  0  0  0
   13.6651   37.4519   31.2225 H   0  0  0  0  0  0  0  0  0  0  0  0
   10.0511   38.1143   29.7645 H   0  0  0  0  0  0  0  0  0  0  0  0
   11.2761   36.3142   32.5190 H   0  0  0  0  0  0  0  0  0  0  0  0
   10.8592   35.6978   30.4641 H   0  0  0  0  0  0  0  0  0  0  0  0
   12.3294   38.3518   34.7449 H   0  0  0  0  0  0  0  0  0  0  0  0
   16.7563   34.1779   32.4620 H   0  0  0  0  0  0  0  0  0  0  0  0
   15.3534   35.7359   37.5139 H   0  0  0  0  0  0  0  0  0  0  0  0
   16.6348   34.5300   37.1416 H   0  0  0  0  0  0  0  0  0  0  0  0
  1  2  2  0
  1  3  1  0
  3  4  1  0
  4  5  1  0
  6  1  1  0
  7  6  1  0
  6  8  1  0
  8  9  1  0
  9 10  2  0
 11  9  1  0
 10 12  1  0
 13 11  2  0
 12 14  2  0
 14 13  1  0
 14 15  1  0
 15 16  1  0
 16 17  1  0
 16 18  1  0
 18 19  2  0
 20 18  1  0
 19 21  1  0
 22 20  2  0
 20 23  1  0
 21 24  1  0
 21 25  2  0
 25 22  1  0
 23 26  1  0
 23 27  2  0
 24 28  1  0
 25 29  1  0
 28 29  1  0
  4 30  2  0
  4 31  1  0
 32 31  1  0
 32 33  1  0
 33 34  1  0
 33 35  1  0
 34 36  1  0
 35 37  1  0
 35 38  1  0
 38 36  1  0
 36 39  1  0
 38 40  1  0
 41 39  1  0
 42 39  1  0
 43 41  2  0
 41 44  1  0
 45 42  2  0
 46 43  1  0
 44 47  2  0
 44 45  1  0
 48 46  2  0
 48 47  1  0
 47 49  1  0
  6 50  1  1
  7 51  1  0
  7 52  1  0
  8 53  1  0
  8 54  1  0
 10 55  1  0
 11 56  1  0
 12 57  1  0
 13 58  1  0
 16 59  1  6
 17 60  1  0
 17 61  1  0
 17 62  1  0
 19 63  1  0
 22 64  1  0
 28 65  1  0
 28 66  1  0
 32 67  1  0
 32 68  1  0
 33 69  1  0
 35 70  1  0
 36 71  1  0
 37 72  1  0
 38 73  1  0
 40 74  1  0
 42 75  1  0
 46 76  1  0
 49 77  1  0
 49 78  1  0
M  CHG  3   5  -1  23   1  26  -1
M  END
>  <EmbedRMS>  (353) 
0.0819170980825

$$$$

     RDKit          3D

 78 83  0  0  0  0  0  0  0  0999 V2000
   10.2803   43.7665   33.8250 C   0  0  0  0  0  0  0  0  0  0  0  0
   11.4110   43.5919   34.3666 O   0  0  0  0  0  0  0  0  0  0  0  0
    9.3616   42.7251   33.7349 O   0  0  0  0  0  0  0  0  0  0  0  0
    9.8896   41.2269   34.2945 P   0  0  0  0  0  0  0  0  0  0  0  0
   10.3731   41.4568   35.8838 O   0  0  0  0  0  0  0  0  0  0  0  0
    9.9459   45.0736   33.2111 C   0  0  1  0  0  0  0  0  0  0  0  0
   11.0267   46.0291   33.4705 N   0  0  0  0  0  0  0  0  0  0  0  0
    9.7536   44.8537   31.6948 C   0  0  0  0  0  0  0  0  0  0  0  0
    8.7955   45.8408   31.0844 C   0  0  0  0  0  0  0  0  0  0  0  0
    7.4088   45.6008   31.1012 C   0  0  0  0  0  0  0  0  0  0  0  0
    9.2827   46.9878   30.4403 C   0  0  0  0  0  0  0  0  0  0  0  0
    6.5284   46.5016   30.4864 C   0  0  0  0  0  0  0  0  0  0  0  0
    8.4022   47.8896   29.8314 C   0  0  0  0  0  0  0  0  0  0  0  0
    7.0136   47.6502   29.8457 C   0  0  0  0  0  0  0  0  0  0  0  0
    6.0848   48.5154   29.2439 O   0  0  0  0  0  0  0  0  0  0  0  0
    6.4061   49.6663   28.4620 C   0  0  2  0  0  0  0  0  0  0  0  0
    5.1456   50.5052   28.2494 C   0  0  0  0  0  0  0  0  0  0  0  0
    7.0331   49.2766   27.1312 C   0  0  0  0  0  0  0  0  0  0  0  0
    8.2866   49.8445   26.7949 C   0  0  0  0  0  0  0  0  0  0  0  0
    6.3855   48.4105   26.1868 C   0  0  0  0  0  0  0  0  0  0  0  0
    8.8474   49.5386   25.5617 C   0  0  0  0  0  0  0  0  0  0  0  0
    6.9975   48.1466   24.9415 C   0  0  0  0  0  0  0  0  0  0  0  0
    5.1130   47.8118   26.4600 N   0  0  0  0  0  0  0  0  0  0  0  0
   10.0479   49.9723   25.0329 O   0  0  0  0  0  0  0  0  0  0  0  0
    8.2296   48.7267   24.6738 C   0  0  0  0  0  0  0  0  0  0  0  0
    5.0041   46.8581   27.4438 O   0  0  0  0  0  0  0  0  0  0  0  0
    4.1892   47.9266   25.6287 O   0  0  0  0  0  0  0  0  0  0  0  0
   10.1921   49.3925   23.7291 C   0  0  0  0  0  0  0  0  0  0  0  0
    9.0087   48.6049   23.5393 O   0  0  0  0  0  0  0  0  0  0  0  0
    8.8122   40.1844   34.2135 O   0  0  0  0  0  0  0  0  0  0  0  0
   11.2401   40.7950   33.3698 O   0  0  0  0  0  0  0  0  0  0  0  0
   10.9143   40.6914   31.9981 C   0  0  0  0  0  0  0  0  0  0  0  0
   11.5270   39.3912   31.4385 C   0  0  0  0  0  0  0  0  0  0  0  0
   12.7519   39.0911   32.0837 O   0  0  0  0  0  0  0  0  0  0  0  0
   10.6113   38.1932   31.6451 C   0  0  0  0  0  0  0  0  0  0  0  0
   12.9413   37.6838   32.0297 C   0  0  0  0  0  0  0  0  0  0  0  0
    9.6064   38.0878   30.6599 O   0  0  0  0  0  0  0  0  0  0  0  0
   11.5822   37.0197   31.6877 C   0  0  0  0  0  0  0  0  0  0  0  0
   13.4840   37.2104   33.3254 N   0  0  0  0  0  0  0  0  0  0  0  0
   11.6179   36.3072   30.4691 O   0  0  0  0  0  0  0  0  0  0  0  0
   14.4797   36.3309   33.5738 C   0  0  0  0  0  0  0  0  0  0  0  0
   13.1136   37.6269   34.5702 C   0  0  0  0  0  0  0  0  0  0  0  0
   15.2074   35.6152   32.6747 N   0  0  0  0  0  0  0  0  0  0  0  0
   14.6756   36.2298   34.9190 C   0  0  0  0  0  0  0  0  0  0  0  0
   13.8217   37.0445   35.5793 N   0  0  0  0  0  0  0  0  0  0  0  0
   16.1643   34.7603   33.1551 C   0  0  0  0  0  0  0  0  0  0  0  0
   15.6528   35.3503   35.4136 C   0  0  0  0  0  0  0  0  0  0  0  0
   16.3798   34.6316   34.5046 N   0  0  0  0  0  0  0  0  0  0  0  0
   15.9004   35.1930   36.8094 N   0  0  0  0  0  0  0  0  0  0  0  0
    8.9995   45.4383   33.6721 H   0  0  0  0  0  0  0  0  0  0  0  0
   10.7764   46.9368   33.0155 H   0  0  0  0  0  0  0  0  0  0  0  0
   11.0504   46.2277   34.4978 H   0  0  0  0  0  0  0  0  0  0  0  0
   10.7407   44.9069   31.1833 H   0  0  0  0  0  0  0  0  0  0  0  0
    9.3637   43.8351   31.4714 H   0  0  0  0  0  0  0  0  0  0  0  0
    7.0130   44.7167   31.5858 H   0  0  0  0  0  0  0  0  0  0  0  0
   10.3468   47.1876   30.4090 H   0  0  0  0  0  0  0  0  0  0  0  0
    5.4641   46.3041   30.5055 H   0  0  0  0  0  0  0  0  0  0  0  0
    8.8153   48.7669   29.3576 H   0  0  0  0  0  0  0  0  0  0  0  0
    7.1026   50.3063   29.0484 H   0  0  0  0  0  0  0  0  0  0  0  0
    4.3415   49.9128   27.7680 H   0  0  0  0  0  0  0  0  0  0  0  0
    4.7686   50.8651   29.2302 H   0  0  0  0  0  0  0  0  0  0  0  0
    5.3750   51.3892   27.6164 H   0  0  0  0  0  0  0  0  0  0  0  0
    8.8068   50.5133   27.4688 H   0  0  0  0  0  0  0  0  0  0  0  0
    6.5280   47.5000   24.2112 H   0  0  0  0  0  0  0  0  0  0  0  0
   10.2495   50.1897   22.9586 H   0  0  0  0  0  0  0  0  0  0  0  0
   11.0931   48.7448   23.6943 H   0  0  0  0  0  0  0  0  0  0  0  0
    9.8233   40.7201   31.7651 H   0  0  0  0  0  0  0  0  0  0  0  0
   11.3775   41.5548   31.4741 H   0  0  0  0  0  0  0  0  0  0  0  0
   11.7312   39.5361   30.3532 H   0  0  0  0  0  0  0  0  0  0  0  0
   10.1202   38.2696   32.6410 H   0  0  0  0  0  0  0  0  0  0  0  0
   13.6850   37.4639   31.2321 H   0  0  0  0  0  0  0  0  0  0  0  0
   10.0251   38.1792   29.7654 H   0  0  0  0  0  0  0  0  0  0  0  0
   11.2757   36.3135   32.4908 H   0  0  0  0  0  0  0  0  0  0  0  0
   11.9838   36.9111   29.7708 H   0  0  0  0  0  0  0  0  0  0  0  0
   12.3307   38.3536   34.7458 H   0  0  0  0  0  0  0  0  0  0  0  0
   16.7566   34.1787   32.4623 H   0  0  0  0  0  0  0  0  0  0  0  0
   16.6353   34.5300   37.1419 H   0  0  0  0  0  0  0  0  0  0  0  0
   15.3535   35.7355   37.5144 H   0  0  0  0  0  0  0  0  0  0  0  0
  1  2  2  0
  1  3  1  0
  3  4  1  0
  4  5  1  0
  6  1  1  0
  7  6  1  0
  6  8  1  0
  8  9  1  0
  9 10  2  0
 11  9  1  0
 10 12  1  0
 13 11  2  0
 12 14  2  0
 14 13  1  0
 14 15  1  0
 15 16  1  0
 16 17  1  0
 16 18  1  0
 18 19  2  0
 20 18  1  0
 19 21  1  0
 22 20  2  0
 20 23  1  0
 21 24  1  0
 21 25  2  0
 25 22  1  0
 23 26  1  0
 23 27  2  0
 24 28  1  0
 25 29  1  0
 28 29  1  0
  4 30  2  0
  4 31  1  0
 32 31  1  0
 32 33  1  0
 33 34  1  0
 33 35  1  0
 34 36  1  0
 35 37  1  0
 35 38  1  0
 38 36  1  0
 36 39  1  0
 38 40  1  0
 41 39  1  0
 42 39  1  0
 43 41  2  0
 41 44  1  0
 45 42  2  0
 46 43  1  0
 44 47  2  0
 44 45  1  0
 48 46  2  0
 48 47  1  0
 47 49  1  0
  6 50  1  1
  7 51  1  0
  7 52  1  0
  8 53  1  0
  8 54  1  0
 10 55  1  0
 11 56  1  0
 12 57  1  0
 13 58  1  0
 16 59  1  1
 17 60  1  0
 17 61  1  0
 17 62  1  0
 19 63  1  0
 22 64  1  0
 28 65  1  0
 28 66  1  0
 32 67  1  0
 32 68  1  0
 33 69  1  0
 35 70  1  0
 36 71  1  0
 37 72  1  0
 38 73  1  0
 40 74  1  0
 42 75  1  0
 46 76  1  0
 49 77  1  0
 49 78  1  0
M  CHG  3   5  -1  23   1  26  -1
M  END
>  <EmbedRMS>  (354) 
0.080661883772

$$$$

     RDKit          3D

 78 83  0  0  0  0  0  0  0  0999 V2000
   10.2838   43.7627   33.8276 C   0  0  0  0  0  0  0  0  0  0  0  0
   11.4103   43.5863   34.3766 O   0  0  0  0  0  0  0  0  0  0  0  0
    9.3628   42.7238   33.7357 O   0  0  0  0  0  0  0  0  0  0  0  0
    9.8890   41.2252   34.2949 P   0  0  0  0  0  0  0  0  0  0  0  0
   10.3724   41.4548   35.8843 O   0  0  0  0  0  0  0  0  0  0  0  0
    9.9549   45.0700   33.2063 C   0  0  1  0  0  0  0  0  0  0  0  0
   11.0198   46.0481   33.4570 N   0  0  0  0  0  0  0  0  0  0  0  0
    9.7507   44.8510   31.6922 C   0  0  0  0  0  0  0  0  0  0  0  0
    8.7945   45.8417   31.0866 C   0  0  0  0  0  0  0  0  0  0  0  0
    7.4078   45.6007   31.1005 C   0  0  0  0  0  0  0  0  0  0  0  0
    9.2827   46.9892   30.4448 C   0  0  0  0  0  0  0  0  0  0  0  0
    6.5254   46.5002   30.4860 C   0  0  0  0  0  0  0  0  0  0  0  0
    8.4008   47.8883   29.8341 C   0  0  0  0  0  0  0  0  0  0  0  0
    7.0192   47.6550   29.8441 C   0  0  0  0  0  0  0  0  0  0  0  0
    6.1876   48.5963   29.2153 O   0  0  0  0  0  0  0  0  0  0  0  0
    4.7765   48.4763   29.0172 C   0  0  2  0  0  0  0  0  0  0  0  0
    4.4537   47.4448   27.9294 C   0  0  0  0  0  0  0  0  0  0  0  0
    4.1676   49.8222   28.6605 C   0  0  0  0  0  0  0  0  0  0  0  0
    2.8438   50.0726   29.0989 C   0  0  0  0  0  0  0  0  0  0  0  0
    4.8696   50.8501   27.9373 C   0  0  0  0  0  0  0  0  0  0  0  0
    2.2792   51.3146   28.8422 C   0  0  0  0  0  0  0  0  0  0  0  0
    4.2468   52.1005   27.7224 C   0  0  0  0  0  0  0  0  0  0  0  0
    6.1961   50.6577   27.4218 N   0  0  0  0  0  0  0  0  0  0  0  0
    1.0205   51.7725   29.1815 O   0  0  0  0  0  0  0  0  0  0  0  0
    2.9525   52.2869   28.1872 C   0  0  0  0  0  0  0  0  0  0  0  0
    7.1013   51.6928   27.4685 O   0  0  0  0  0  0  0  0  0  0  0  0
    6.4628   49.6582   26.7247 O   0  0  0  0  0  0  0  0  0  0  0  0
    0.8977   53.1204   28.7073 C   0  0  0  0  0  0  0  0  0  0  0  0
    2.1538   53.4091   28.0785 O   0  0  0  0  0  0  0  0  0  0  0  0
    8.8112   40.1834   34.2131 O   0  0  0  0  0  0  0  0  0  0  0  0
   11.2398   40.7938   33.3702 O   0  0  0  0  0  0  0  0  0  0  0  0
   10.9144   40.6912   31.9983 C   0  0  0  0  0  0  0  0  0  0  0  0
   11.5270   39.3911   31.4385 C   0  0  0  0  0  0  0  0  0  0  0  0
   12.7520   39.0911   32.0836 O   0  0  0  0  0  0  0  0  0  0  0  0
   10.6114   38.1931   31.6451 C   0  0  0  0  0  0  0  0  0  0  0  0
   12.9413   37.6837   32.0297 C   0  0  0  0  0  0  0  0  0  0  0  0
    9.6064   38.0877   30.6599 O   0  0  0  0  0  0  0  0  0  0  0  0
   11.5822   37.0197   31.6876 C   0  0  0  0  0  0  0  0  0  0  0  0
   13.4840   37.2104   33.3254 N   0  0  0  0  0  0  0  0  0  0  0  0
   11.6179   36.3071   30.4690 O   0  0  0  0  0  0  0  0  0  0  0  0
   14.4797   36.3309   33.5738 C   0  0  0  0  0  0  0  0  0  0  0  0
   13.1136   37.6269   34.5702 C   0  0  0  0  0  0  0  0  0  0  0  0
   15.2074   35.6152   32.6747 N   0  0  0  0  0  0  0  0  0  0  0  0
   14.6756   36.2298   34.9190 C   0  0  0  0  0  0  0  0  0  0  0  0
   13.8217   37.0445   35.5793 N   0  0  0  0  0  0  0  0  0  0  0  0
   16.1643   34.7603   33.1551 C   0  0  0  0  0  0  0  0  0  0  0  0
   15.6528   35.3503   35.4136 C   0  0  0  0  0  0  0  0  0  0  0  0
   16.3798   34.6316   34.5046 N   0  0  0  0  0  0  0  0  0  0  0  0
   15.9004   35.1930   36.8094 N   0  0  0  0  0  0  0  0  0  0  0  0
    9.0099   45.4350   33.6667 H   0  0  0  0  0  0  0  0  0  0  0  0
   11.9350   45.6933   33.0928 H   0  0  0  0  0  0  0  0  0  0  0  0
   11.1132   46.1992   34.4884 H   0  0  0  0  0  0  0  0  0  0  0  0
   10.7311   44.8930   31.1675 H   0  0  0  0  0  0  0  0  0  0  0  0
    9.3520   43.8344   31.4758 H   0  0  0  0  0  0  0  0  0  0  0  0
    7.0129   44.7158   31.5844 H   0  0  0  0  0  0  0  0  0  0  0  0
   10.3466   47.1898   30.4156 H   0  0  0  0  0  0  0  0  0  0  0  0
    5.4678   46.2836   30.5225 H   0  0  0  0  0  0  0  0  0  0  0  0
    8.7938   48.7709   29.3451 H   0  0  0  0  0  0  0  0  0  0  0  0
    4.3176   48.1388   29.9723 H   0  0  0  0  0  0  0  0  0  0  0  0
    3.3540   47.3052   27.8558 H   0  0  0  0  0  0  0  0  0  0  0  0
    4.9093   46.4633   28.1714 H   0  0  0  0  0  0  0  0  0  0  0  0
    4.8332   47.7707   26.9405 H   0  0  0  0  0  0  0  0  0  0  0  0
    2.2745   49.3239   29.6356 H   0  0  0  0  0  0  0  0  0  0  0  0
    4.7506   52.8958   27.1882 H   0  0  0  0  0  0  0  0  0  0  0  0
    0.7269   53.8128   29.5581 H   0  0  0  0  0  0  0  0  0  0  0  0
    0.0731   53.1936   27.9676 H   0  0  0  0  0  0  0  0  0  0  0  0
   11.3780   41.5548   31.4750 H   0  0  0  0  0  0  0  0  0  0  0  0
    9.8235   40.7201   31.7651 H   0  0  0  0  0  0  0  0  0  0  0  0
   11.7311   39.5363   30.3531 H   0  0  0  0  0  0  0  0  0  0  0  0
   10.1203   38.2695   32.6410 H   0  0  0  0  0  0  0  0  0  0  0  0
   13.6850   37.4638   31.2321 H   0  0  0  0  0  0  0  0  0  0  0  0
   10.0251   38.1792   29.7654 H   0  0  0  0  0  0  0  0  0  0  0  0
   11.2757   36.3135   32.4907 H   0  0  0  0  0  0  0  0  0  0  0  0
   11.9839   36.9111   29.7708 H   0  0  0  0  0  0  0  0  0  0  0  0
   12.3307   38.3536   34.7457 H   0  0  0  0  0  0  0  0  0  0  0  0
   16.7566   34.1787   32.4623 H   0  0  0  0  0  0  0  0  0  0  0  0
   16.6353   34.5301   37.1419 H   0  0  0  0  0  0  0  0  0  0  0  0
   15.3535   35.7355   37.5144 H   0  0  0  0  0  0  0  0  0  0  0  0
  1  2  2  0
  1  3  1  0
  3  4  1  0
  4  5  1  0
  6  1  1  0
  7  6  1  0
  6  8  1  0
  8  9  1  0
  9 10  2  0
 11  9  1  0
 10 12  1  0
 13 11  2  0
 12 14  2  0
 14 13  1  0
 14 15  1  0
 15 16  1  0
 16 17  1  0
 16 18  1  0
 18 19  2  0
 20 18  1  0
 19 21  1  0
 22 20  2  0
 20 23  1  0
 21 24  1  0
 21 25  2  0
 25 22  1  0
 23 26  1  0
 23 27  2  0
 24 28  1  0
 25 29  1  0
 28 29  1  0
  4 30  2  0
  4 31  1  0
 32 31  1  0
 32 33  1  0
 33 34  1  0
 33 35  1  0
 34 36  1  0
 35 37  1  0
 35 38  1  0
 38 36  1  0
 36 39  1  0
 38 40  1  0
 41 39  1  0
 42 39  1  0
 43 41  2  0
 41 44  1  0
 45 42  2  0
 46 43  1  0
 44 47  2  0
 44 45  1  0
 48 46  2  0
 48 47  1  0
 47 49  1  0
  6 50  1  1
  7 51  1  0
  7 52  1  0
  8 53  1  0
  8 54  1  0
 10 55  1  0
 11 56  1  0
 12 57  1  0
 13 58  1  0
 16 59  1  1
 17 60  1  0
 17 61  1  0
 17 62  1  0
 19 63  1  0
 22 64  1  0
 28 65  1  0
 28 66  1  0
 32 67  1  0
 32 68  1  0
 33 69  1  0
 35 70  1  0
 36 71  1  0
 37 72  1  0
 38 73  1  0
 40 74  1  0
 42 75  1  0
 46 76  1  0
 49 77  1  0
 49 78  1  0
M  CHG  3   5  -1  23   1  26  -1
M  END
>  <EmbedRMS>  (355) 
0.0817289282057

$$$$

     RDKit          3D

 78 83  0  0  0  0  0  0  0  0999 V2000
   10.2835   43.7661   33.8257 C   0  0  0  0  0  0  0  0  0  0  0  0
   11.4102   43.5930   34.3753 O   0  0  0  0  0  0  0  0  0  0  0  0
    9.3638   42.7255   33.7349 O   0  0  0  0  0  0  0  0  0  0  0  0
    9.8907   41.2265   34.2933 P   0  0  0  0  0  0  0  0  0  0  0  0
   10.3743   41.4557   35.8828 O   0  0  0  0  0  0  0  0  0  0  0  0
    9.9547   45.0695   33.2037 C   0  0  1  0  0  0  0  0  0  0  0  0
   11.0274   46.0321   33.4757 N   0  0  0  0  0  0  0  0  0  0  0  0
    9.7465   44.8481   31.6878 C   0  0  0  0  0  0  0  0  0  0  0  0
    8.7923   45.8409   31.0848 C   0  0  0  0  0  0  0  0  0  0  0  0
    7.4058   45.6014   31.0988 C   0  0  0  0  0  0  0  0  0  0  0  0
    9.2821   46.9874   30.4422 C   0  0  0  0  0  0  0  0  0  0  0  0
    6.5272   46.5027   30.4831 C   0  0  0  0  0  0  0  0  0  0  0  0
    8.4034   47.8897   29.8308 C   0  0  0  0  0  0  0  0  0  0  0  0
    7.0132   47.6544   29.8486 C   0  0  0  0  0  0  0  0  0  0  0  0
    6.0826   48.5194   29.2488 O   0  0  0  0  0  0  0  0  0  0  0  0
    6.3726   49.7910   28.6598 C   0  0  2  0  0  0  0  0  0  0  0  0
    6.6490   50.8289   29.7537 C   0  0  0  0  0  0  0  0  0  0  0  0
    5.1861   50.2321   27.8238 C   0  0  0  0  0  0  0  0  0  0  0  0
    3.8848   50.0865   28.3657 C   0  0  0  0  0  0  0  0  0  0  0  0
    5.3371   50.7506   26.4945 C   0  0  0  0  0  0  0  0  0  0  0  0
    2.7941   50.4184   27.5731 C   0  0  0  0  0  0  0  0  0  0  0  0
    4.1878   51.0558   25.7290 C   0  0  0  0  0  0  0  0  0  0  0  0
    6.6321   50.9975   25.9241 N   0  0  0  0  0  0  0  0  0  0  0  0
    1.4505   50.3470   27.8872 O   0  0  0  0  0  0  0  0  0  0  0  0
    2.9389   50.8772   26.3089 C   0  0  0  0  0  0  0  0  0  0  0  0
    7.5796   51.6929   26.6393 O   0  0  0  0  0  0  0  0  0  0  0  0
    6.8277   50.7905   24.7087 O   0  0  0  0  0  0  0  0  0  0  0  0
    0.7051   50.7910   26.7453 C   0  0  0  0  0  0  0  0  0  0  0  0
    1.6943   51.1202   25.7604 O   0  0  0  0  0  0  0  0  0  0  0  0
    8.8123   40.1850   34.2127 O   0  0  0  0  0  0  0  0  0  0  0  0
   11.2407   40.7945   33.3670 O   0  0  0  0  0  0  0  0  0  0  0  0
   10.9134   40.6866   31.9954 C   0  0  0  0  0  0  0  0  0  0  0  0
   11.5167   39.3787   31.4404 C   0  0  0  0  0  0  0  0  0  0  0  0
   12.7486   39.0849   32.0734 O   0  0  0  0  0  0  0  0  0  0  0  0
   10.6039   38.1884   31.6669 C   0  0  0  0  0  0  0  0  0  0  0  0
   12.9329   37.6776   32.0284 C   0  0  0  0  0  0  0  0  0  0  0  0
    9.6374   38.0938   30.6485 O   0  0  0  0  0  0  0  0  0  0  0  0
   11.5737   37.0141   31.7055 C   0  0  0  0  0  0  0  0  0  0  0  0
   13.4853   37.2120   33.3238 N   0  0  0  0  0  0  0  0  0  0  0  0
   11.6210   36.3379   30.4683 O   0  0  0  0  0  0  0  0  0  0  0  0
   14.4804   36.3319   33.5726 C   0  0  0  0  0  0  0  0  0  0  0  0
   13.1141   37.6275   34.5689 C   0  0  0  0  0  0  0  0  0  0  0  0
   15.2076   35.6152   32.6740 N   0  0  0  0  0  0  0  0  0  0  0  0
   14.6761   36.2306   34.9181 C   0  0  0  0  0  0  0  0  0  0  0  0
   13.8218   37.0451   35.5783 N   0  0  0  0  0  0  0  0  0  0  0  0
   16.1642   34.7600   33.1548 C   0  0  0  0  0  0  0  0  0  0  0  0
   15.6528   35.3507   35.4131 C   0  0  0  0  0  0  0  0  0  0  0  0
   16.3795   34.6315   34.5043 N   0  0  0  0  0  0  0  0  0  0  0  0
   15.9001   35.1933   36.8090 N   0  0  0  0  0  0  0  0  0  0  0  0
    9.0121   45.4317   33.6716 H   0  0  0  0  0  0  0  0  0  0  0  0
   11.8906   45.7658   32.9470 H   0  0  0  0  0  0  0  0  0  0  0  0
   10.7260   46.9687   33.1213 H   0  0  0  0  0  0  0  0  0  0  0  0
   10.7229   44.8814   31.1558 H   0  0  0  0  0  0  0  0  0  0  0  0
    9.3414   43.8329   31.4764 H   0  0  0  0  0  0  0  0  0  0  0  0
    7.0085   44.7163   31.5804 H   0  0  0  0  0  0  0  0  0  0  0  0
   10.3469   47.1833   30.4101 H   0  0  0  0  0  0  0  0  0  0  0  0
    5.4627   46.3057   30.5007 H   0  0  0  0  0  0  0  0  0  0  0  0
    8.8220   48.7581   29.3438 H   0  0  0  0  0  0  0  0  0  0  0  0
    7.2656   49.6844   28.0133 H   0  0  0  0  0  0  0  0  0  0  0  0
    5.7868   50.8984   30.4507 H   0  0  0  0  0  0  0  0  0  0  0  0
    6.8266   51.8274   29.3011 H   0  0  0  0  0  0  0  0  0  0  0  0
    7.5486   50.5499   30.3388 H   0  0  0  0  0  0  0  0  0  0  0  0
    3.7278   49.7089   29.3683 H   0  0  0  0  0  0  0  0  0  0  0  0
    4.2681   51.4459   24.7225 H   0  0  0  0  0  0  0  0  0  0  0  0
    0.0505   49.9752   26.3731 H   0  0  0  0  0  0  0  0  0  0  0  0
    0.1070   51.6901   27.0029 H   0  0  0  0  0  0  0  0  0  0  0  0
   11.3828   41.5438   31.4669 H   0  0  0  0  0  0  0  0  0  0  0  0
    9.8225   40.7225   31.7631 H   0  0  0  0  0  0  0  0  0  0  0  0
   11.6979   39.5037   30.3478 H   0  0  0  0  0  0  0  0  0  0  0  0
   10.1084   38.2786   32.6627 H   0  0  0  0  0  0  0  0  0  0  0  0
   13.6638   37.4472   31.2214 H   0  0  0  0  0  0  0  0  0  0  0  0
    8.9763   37.4191   30.9532 H   0  0  0  0  0  0  0  0  0  0  0  0
   11.2821   36.3054   32.5172 H   0  0  0  0  0  0  0  0  0  0  0  0
   10.8658   35.6935   30.4652 H   0  0  0  0  0  0  0  0  0  0  0  0
   12.3293   38.3523   34.7445 H   0  0  0  0  0  0  0  0  0  0  0  0
   16.7561   34.1778   32.4621 H   0  0  0  0  0  0  0  0  0  0  0  0
   15.3533   35.7361   37.5138 H   0  0  0  0  0  0  0  0  0  0  0  0
   16.6345   34.5300   37.1416 H   0  0  0  0  0  0  0  0  0  0  0  0
  1  2  2  0
  1  3  1  0
  3  4  1  0
  4  5  1  0
  6  1  1  0
  7  6  1  0
  6  8  1  0
  8  9  1  0
  9 10  2  0
 11  9  1  0
 10 12  1  0
 13 11  2  0
 12 14  2  0
 14 13  1  0
 14 15  1  0
 15 16  1  0
 16 17  1  0
 16 18  1  0
 18 19  2  0
 20 18  1  0
 19 21  1  0
 22 20  2  0
 20 23  1  0
 21 24  1  0
 21 25  2  0
 25 22  1  0
 23 26  1  0
 23 27  2  0
 24 28  1  0
 25 29  1  0
 28 29  1  0
  4 30  2  0
  4 31  1  0
 32 31  1  0
 32 33  1  0
 33 34  1  0
 33 35  1  0
 34 36  1  0
 35 37  1  0
 35 38  1  0
 38 36  1  0
 36 39  1  0
 38 40  1  0
 41 39  1  0
 42 39  1  0
 43 41  2  0
 41 44  1  0
 45 42  2  0
 46 43  1  0
 44 47  2  0
 44 45  1  0
 48 46  2  0
 48 47  1  0
 47 49  1  0
  6 50  1  1
  7 51  1  0
  7 52  1  0
  8 53  1  0
  8 54  1  0
 10 55  1  0
 11 56  1  0
 12 57  1  0
 13 58  1  0
 16 59  1  6
 17 60  1  0
 17 61  1  0
 17 62  1  0
 19 63  1  0
 22 64  1  0
 28 65  1  0
 28 66  1  0
 32 67  1  0
 32 68  1  0
 33 69  1  0
 35 70  1  0
 36 71  1  0
 37 72  1  0
 38 73  1  0
 40 74  1  0
 42 75  1  0
 46 76  1  0
 49 77  1  0
 49 78  1  0
M  CHG  3   5  -1  23   1  26  -1
M  END
>  <EmbedRMS>  (356) 
0.0825457823811

$$$$

     RDKit          3D

 78 83  0  0  0  0  0  0  0  0999 V2000
   10.2801   43.7667   33.8249 C   0  0  0  0  0  0  0  0  0  0  0  0
   11.4108   43.5923   34.3665 O   0  0  0  0  0  0  0  0  0  0  0  0
    9.3618   42.7251   33.7343 O   0  0  0  0  0  0  0  0  0  0  0  0
    9.8903   41.2266   34.2931 P   0  0  0  0  0  0  0  0  0  0  0  0
   10.3742   41.4564   35.8823 O   0  0  0  0  0  0  0  0  0  0  0  0
    9.9453   45.0740   33.2113 C   0  0  1  0  0  0  0  0  0  0  0  0
   11.0257   46.0299   33.4709 N   0  0  0  0  0  0  0  0  0  0  0  0
    9.7535   44.8546   31.6950 C   0  0  0  0  0  0  0  0  0  0  0  0
    8.7953   45.8416   31.0848 C   0  0  0  0  0  0  0  0  0  0  0  0
    7.4076   45.5987   31.0993 C   0  0  0  0  0  0  0  0  0  0  0  0
    9.2833   46.9880   30.4369 C   0  0  0  0  0  0  0  0  0  0  0  0
    6.5266   46.4982   30.4830 C   0  0  0  0  0  0  0  0  0  0  0  0
    8.4007   47.8873   29.8268 C   0  0  0  0  0  0  0  0  0  0  0  0
    7.0202   47.6536   29.8584 C   0  0  0  0  0  0  0  0  0  0  0  0
    6.1463   48.5563   29.2474 O   0  0  0  0  0  0  0  0  0  0  0  0
    5.4220   49.5673   29.9557 C   0  0  2  0  0  0  0  0  0  0  0  0
    6.3444   50.7157   30.3847 C   0  0  0  0  0  0  0  0  0  0  0  0
    4.5406   48.9705   31.0522 C   0  0  0  0  0  0  0  0  0  0  0  0
    3.2833   48.4588   30.6444 C   0  0  0  0  0  0  0  0  0  0  0  0
    4.9038   48.8793   32.4416 C   0  0  0  0  0  0  0  0  0  0  0  0
    2.4366   47.9172   31.6025 C   0  0  0  0  0  0  0  0  0  0  0  0
    3.9960   48.3311   33.3726 C   0  0  0  0  0  0  0  0  0  0  0  0
    6.1712   49.3212   32.9312 N   0  0  0  0  0  0  0  0  0  0  0  0
    1.1786   47.3732   31.4280 O   0  0  0  0  0  0  0  0  0  0  0  0
    2.7763   47.8596   32.9095 C   0  0  0  0  0  0  0  0  0  0  0  0
    6.2125   50.3236   33.8716 O   0  0  0  0  0  0  0  0  0  0  0  0
    7.1759   48.5988   32.7746 O   0  0  0  0  0  0  0  0  0  0  0  0
    0.6992   46.9475   32.7109 C   0  0  0  0  0  0  0  0  0  0  0  0
    1.7507   47.2769   33.6288 O   0  0  0  0  0  0  0  0  0  0  0  0
    8.8125   40.1845   34.2129 O   0  0  0  0  0  0  0  0  0  0  0  0
   11.2404   40.7949   33.3668 O   0  0  0  0  0  0  0  0  0  0  0  0
   10.9133   40.6867   31.9952 C   0  0  0  0  0  0  0  0  0  0  0  0
   11.5166   39.3787   31.4404 C   0  0  0  0  0  0  0  0  0  0  0  0
   12.7485   39.0849   32.0735 O   0  0  0  0  0  0  0  0  0  0  0  0
   10.6039   38.1884   31.6669 C   0  0  0  0  0  0  0  0  0  0  0  0
   12.9329   37.6776   32.0284 C   0  0  0  0  0  0  0  0  0  0  0  0
    9.6373   38.0938   30.6484 O   0  0  0  0  0  0  0  0  0  0  0  0
   11.5737   37.0141   31.7055 C   0  0  0  0  0  0  0  0  0  0  0  0
   13.4853   37.2120   33.3238 N   0  0  0  0  0  0  0  0  0  0  0  0
   11.6210   36.3379   30.4683 O   0  0  0  0  0  0  0  0  0  0  0  0
   14.4804   36.3319   33.5726 C   0  0  0  0  0  0  0  0  0  0  0  0
   13.1141   37.6275   34.5689 C   0  0  0  0  0  0  0  0  0  0  0  0
   15.2075   35.6152   32.6740 N   0  0  0  0  0  0  0  0  0  0  0  0
   14.6761   36.2306   34.9181 C   0  0  0  0  0  0  0  0  0  0  0  0
   13.8218   37.0451   35.5783 N   0  0  0  0  0  0  0  0  0  0  0  0
   16.1642   34.7600   33.1548 C   0  0  0  0  0  0  0  0  0  0  0  0
   15.6528   35.3507   35.4131 C   0  0  0  0  0  0  0  0  0  0  0  0
   16.3795   34.6315   34.5043 N   0  0  0  0  0  0  0  0  0  0  0  0
   15.9001   35.1933   36.8090 N   0  0  0  0  0  0  0  0  0  0  0  0
    8.9986   45.4385   33.6720 H   0  0  0  0  0  0  0  0  0  0  0  0
   11.0493   46.2281   34.4983 H   0  0  0  0  0  0  0  0  0  0  0  0
   10.7746   46.9376   33.0164 H   0  0  0  0  0  0  0  0  0  0  0  0
    9.3640   43.8359   31.4712 H   0  0  0  0  0  0  0  0  0  0  0  0
   10.7407   44.9083   31.1838 H   0  0  0  0  0  0  0  0  0  0  0  0
    7.0126   44.7127   31.5808 H   0  0  0  0  0  0  0  0  0  0  0  0
   10.3473   47.1864   30.4008 H   0  0  0  0  0  0  0  0  0  0  0  0
    5.4633   46.2967   30.4935 H   0  0  0  0  0  0  0  0  0  0  0  0
    8.7889   48.7689   29.3329 H   0  0  0  0  0  0  0  0  0  0  0  0
    4.7355   50.0345   29.2148 H   0  0  0  0  0  0  0  0  0  0  0  0
    6.6773   51.2765   29.4853 H   0  0  0  0  0  0  0  0  0  0  0  0
    5.8036   51.4210   31.0511 H   0  0  0  0  0  0  0  0  0  0  0  0
    7.2577   50.3446   30.8884 H   0  0  0  0  0  0  0  0  0  0  0  0
    2.9720   48.4843   29.6075 H   0  0  0  0  0  0  0  0  0  0  0  0
    4.2465   48.2592   34.4233 H   0  0  0  0  0  0  0  0  0  0  0  0
    0.5207   45.8517   32.7099 H   0  0  0  0  0  0  0  0  0  0  0  0
   -0.2277   47.4978   32.9765 H   0  0  0  0  0  0  0  0  0  0  0  0
    9.8224   40.7224   31.7629 H   0  0  0  0  0  0  0  0  0  0  0  0
   11.3825   41.5438   31.4665 H   0  0  0  0  0  0  0  0  0  0  0  0
   11.6979   39.5036   30.3478 H   0  0  0  0  0  0  0  0  0  0  0  0
   10.1084   38.2786   32.6627 H   0  0  0  0  0  0  0  0  0  0  0  0
   13.6638   37.4473   31.2215 H   0  0  0  0  0  0  0  0  0  0  0  0
    8.9763   37.4191   30.9532 H   0  0  0  0  0  0  0  0  0  0  0  0
   11.2821   36.3054   32.5172 H   0  0  0  0  0  0  0  0  0  0  0  0
   10.8658   35.6935   30.4652 H   0  0  0  0  0  0  0  0  0  0  0  0
   12.3293   38.3523   34.7445 H   0  0  0  0  0  0  0  0  0  0  0  0
   16.7561   34.1778   32.4621 H   0  0  0  0  0  0  0  0  0  0  0  0
   15.3533   35.7361   37.5138 H   0  0  0  0  0  0  0  0  0  0  0  0
   16.6345   34.5300   37.1416 H   0  0  0  0  0  0  0  0  0  0  0  0
  1  2  2  0
  1  3  1  0
  3  4  1  0
  4  5  1  0
  6  1  1  0
  7  6  1  0
  6  8  1  0
  8  9  1  0
  9 10  2  0
 11  9  1  0
 10 12  1  0
 13 11  2  0
 12 14  2  0
 14 13  1  0
 14 15  1  0
 15 16  1  0
 16 17  1  0
 16 18  1  0
 18 19  2  0
 20 18  1  0
 19 21  1  0
 22 20  2  0
 20 23  1  0
 21 24  1  0
 21 25  2  0
 25 22  1  0
 23 26  1  0
 23 27  2  0
 24 28  1  0
 25 29  1  0
 28 29  1  0
  4 30  2  0
  4 31  1  0
 32 31  1  0
 32 33  1  0
 33 34  1  0
 33 35  1  0
 34 36  1  0
 35 37  1  0
 35 38  1  0
 38 36  1  0
 36 39  1  0
 38 40  1  0
 41 39  1  0
 42 39  1  0
 43 41  2  0
 41 44  1  0
 45 42  2  0
 46 43  1  0
 44 47  2  0
 44 45  1  0
 48 46  2  0
 48 47  1  0
 47 49  1  0
  6 50  1  1
  7 51  1  0
  7 52  1  0
  8 53  1  0
  8 54  1  0
 10 55  1  0
 11 56  1  0
 12 57  1  0
 13 58  1  0
 16 59  1  6
 17 60  1  0
 17 61  1  0
 17 62  1  0
 19 63  1  0
 22 64  1  0
 28 65  1  0
 28 66  1  0
 32 67  1  0
 32 68  1  0
 33 69  1  0
 35 70  1  0
 36 71  1  0
 37 72  1  0
 38 73  1  0
 40 74  1  0
 42 75  1  0
 46 76  1  0
 49 77  1  0
 49 78  1  0
M  CHG  3   5  -1  23   1  26  -1
M  END
>  <EmbedRMS>  (357) 
0.0825074445117

$$$$

     RDKit          3D

 78 83  0  0  0  0  0  0  0  0999 V2000
   10.2838   43.7626   33.8277 C   0  0  0  0  0  0  0  0  0  0  0  0
   11.4103   43.5863   34.3767 O   0  0  0  0  0  0  0  0  0  0  0  0
    9.3630   42.7236   33.7355 O   0  0  0  0  0  0  0  0  0  0  0  0
    9.8893   41.2249   34.2944 P   0  0  0  0  0  0  0  0  0  0  0  0
   10.3727   41.4546   35.8838 O   0  0  0  0  0  0  0  0  0  0  0  0
    9.9548   45.0699   33.2065 C   0  0  1  0  0  0  0  0  0  0  0  0
   11.0199   46.0480   33.4569 N   0  0  0  0  0  0  0  0  0  0  0  0
    9.7500   44.8508   31.6925 C   0  0  0  0  0  0  0  0  0  0  0  0
    8.7941   45.8418   31.0872 C   0  0  0  0  0  0  0  0  0  0  0  0
    7.4077   45.6009   31.0998 C   0  0  0  0  0  0  0  0  0  0  0  0
    9.2830   46.9887   30.4448 C   0  0  0  0  0  0  0  0  0  0  0  0
    6.5285   46.5016   30.4837 C   0  0  0  0  0  0  0  0  0  0  0  0
    8.4039   47.8897   29.8318 C   0  0  0  0  0  0  0  0  0  0  0  0
    7.0138   47.6530   29.8481 C   0  0  0  0  0  0  0  0  0  0  0  0
    6.0822   48.5146   29.2448 O   0  0  0  0  0  0  0  0  0  0  0  0
    6.3743   49.7638   28.6111 C   0  0  2  0  0  0  0  0  0  0  0  0
    6.6306   50.8275   29.6904 C   0  0  0  0  0  0  0  0  0  0  0  0
    5.2355   50.0895   27.6454 C   0  0  0  0  0  0  0  0  0  0  0  0
    4.4907   51.2975   27.7560 C   0  0  0  0  0  0  0  0  0  0  0  0
    4.8679   49.1463   26.6214 C   0  0  0  0  0  0  0  0  0  0  0  0
    3.4301   51.5112   26.8859 C   0  0  0  0  0  0  0  0  0  0  0  0
    3.7674   49.4167   25.7772 C   0  0  0  0  0  0  0  0  0  0  0  0
    5.5756   47.9076   26.4373 N   0  0  0  0  0  0  0  0  0  0  0  0
    2.5809   52.5993   26.8205 O   0  0  0  0  0  0  0  0  0  0  0  0
    3.0821   50.6103   25.9413 C   0  0  0  0  0  0  0  0  0  0  0  0
    4.8891   46.7803   26.0488 O   0  0  0  0  0  0  0  0  0  0  0  0
    6.8230   47.8837   26.4245 O   0  0  0  0  0  0  0  0  0  0  0  0
    1.6398   52.3636   25.7646 C   0  0  0  0  0  0  0  0  0  0  0  0
    1.9957   51.0818   25.2295 O   0  0  0  0  0  0  0  0  0  0  0  0
    8.8113   40.1833   34.2130 O   0  0  0  0  0  0  0  0  0  0  0  0
   11.2399   40.7932   33.3693 O   0  0  0  0  0  0  0  0  0  0  0  0
   10.9143   40.6896   31.9973 C   0  0  0  0  0  0  0  0  0  0  0  0
   11.5261   39.3884   31.4375 C   0  0  0  0  0  0  0  0  0  0  0  0
   12.7504   39.0887   32.0815 O   0  0  0  0  0  0  0  0  0  0  0  0
   10.6115   38.1909   31.6460 C   0  0  0  0  0  0  0  0  0  0  0  0
   12.9357   37.6812   32.0303 C   0  0  0  0  0  0  0  0  0  0  0  0
    9.6146   38.0858   30.6533 O   0  0  0  0  0  0  0  0  0  0  0  0
   11.5769   37.0147   31.7012 C   0  0  0  0  0  0  0  0  0  0  0  0
   13.4849   37.2112   33.3247 N   0  0  0  0  0  0  0  0  0  0  0  0
   11.6193   36.3260   30.4724 O   0  0  0  0  0  0  0  0  0  0  0  0
   14.4802   36.3313   33.5730 C   0  0  0  0  0  0  0  0  0  0  0  0
   13.1141   37.6268   34.5697 C   0  0  0  0  0  0  0  0  0  0  0  0
   15.2075   35.6151   32.6741 N   0  0  0  0  0  0  0  0  0  0  0  0
   14.6761   36.2301   34.9184 C   0  0  0  0  0  0  0  0  0  0  0  0
   13.8220   37.0445   35.5789 N   0  0  0  0  0  0  0  0  0  0  0  0
   16.1642   34.7600   33.1547 C   0  0  0  0  0  0  0  0  0  0  0  0
   15.6529   35.3503   35.4131 C   0  0  0  0  0  0  0  0  0  0  0  0
   16.3798   34.6314   34.5042 N   0  0  0  0  0  0  0  0  0  0  0  0
   15.9004   35.1930   36.8090 N   0  0  0  0  0  0  0  0  0  0  0  0
    9.0099   45.4349   33.6673 H   0  0  0  0  0  0  0  0  0  0  0  0
   11.9348   45.6932   33.0924 H   0  0  0  0  0  0  0  0  0  0  0  0
   11.1136   46.1992   34.4881 H   0  0  0  0  0  0  0  0  0  0  0  0
   10.7303   44.8921   31.1676 H   0  0  0  0  0  0  0  0  0  0  0  0
    9.3507   43.8343   31.4764 H   0  0  0  0  0  0  0  0  0  0  0  0
    7.0110   44.7155   31.5812 H   0  0  0  0  0  0  0  0  0  0  0  0
   10.3475   47.1869   30.4156 H   0  0  0  0  0  0  0  0  0  0  0  0
    5.4643   46.3030   30.4996 H   0  0  0  0  0  0  0  0  0  0  0  0
    8.8225   48.7599   29.3483 H   0  0  0  0  0  0  0  0  0  0  0  0
    7.2976   49.6841   28.0020 H   0  0  0  0  0  0  0  0  0  0  0  0
    5.7313   50.9587   30.3293 H   0  0  0  0  0  0  0  0  0  0  0  0
    7.4703   50.5189   30.3460 H   0  0  0  0  0  0  0  0  0  0  0  0
    6.9112   51.7951   29.2227 H   0  0  0  0  0  0  0  0  0  0  0  0
    4.7051   52.0557   28.4941 H   0  0  0  0  0  0  0  0  0  0  0  0
    3.4662   48.7220   25.0037 H   0  0  0  0  0  0  0  0  0  0  0  0
    0.6066   52.3362   26.1699 H   0  0  0  0  0  0  0  0  0  0  0  0
    1.7361   53.1455   24.9824 H   0  0  0  0  0  0  0  0  0  0  0  0
    9.8234   40.7191   31.7644 H   0  0  0  0  0  0  0  0  0  0  0  0
   11.3782   41.5525   31.4733 H   0  0  0  0  0  0  0  0  0  0  0  0
   11.7282   39.5312   30.3515 H   0  0  0  0  0  0  0  0  0  0  0  0
   10.1127   38.2733   32.6376 H   0  0  0  0  0  0  0  0  0  0  0  0
   13.6693   37.4565   31.2242 H   0  0  0  0  0  0  0  0  0  0  0  0
   10.0533   38.1117   29.7635 H   0  0  0  0  0  0  0  0  0  0  0  0
   11.2607   36.3147   32.5101 H   0  0  0  0  0  0  0  0  0  0  0  0
   12.1496   35.5022   30.6324 H   0  0  0  0  0  0  0  0  0  0  0  0
   12.3301   38.3524   34.7455 H   0  0  0  0  0  0  0  0  0  0  0  0
   16.7563   34.1781   32.4619 H   0  0  0  0  0  0  0  0  0  0  0  0
   15.3536   35.7357   37.5140 H   0  0  0  0  0  0  0  0  0  0  0  0
   16.6351   34.5299   37.1416 H   0  0  0  0  0  0  0  0  0  0  0  0
  1  2  2  0
  1  3  1  0
  3  4  1  0
  4  5  1  0
  6  1  1  0
  7  6  1  0
  6  8  1  0
  8  9  1  0
  9 10  2  0
 11  9  1  0
 10 12  1  0
 13 11  2  0
 12 14  2  0
 14 13  1  0
 14 15  1  0
 15 16  1  0
 16 17  1  0
 16 18  1  0
 18 19  2  0
 20 18  1  0
 19 21  1  0
 22 20  2  0
 20 23  1  0
 21 24  1  0
 21 25  2  0
 25 22  1  0
 23 26  1  0
 23 27  2  0
 24 28  1  0
 25 29  1  0
 28 29  1  0
  4 30  2  0
  4 31  1  0
 32 31  1  0
 32 33  1  0
 33 34  1  0
 33 35  1  0
 34 36  1  0
 35 37  1  0
 35 38  1  0
 38 36  1  0
 36 39  1  0
 38 40  1  0
 41 39  1  0
 42 39  1  0
 43 41  2  0
 41 44  1  0
 45 42  2  0
 46 43  1  0
 44 47  2  0
 44 45  1  0
 48 46  2  0
 48 47  1  0
 47 49  1  0
  6 50  1  1
  7 51  1  0
  7 52  1  0
  8 53  1  0
  8 54  1  0
 10 55  1  0
 11 56  1  0
 12 57  1  0
 13 58  1  0
 16 59  1  6
 17 60  1  0
 17 61  1  0
 17 62  1  0
 19 63  1  0
 22 64  1  0
 28 65  1  0
 28 66  1  0
 32 67  1  0
 32 68  1  0
 33 69  1  0
 35 70  1  0
 36 71  1  0
 37 72  1  0
 38 73  1  0
 40 74  1  0
 42 75  1  0
 46 76  1  0
 49 77  1  0
 49 78  1  0
M  CHG  3   5  -1  23   1  26  -1
M  END
>  <EmbedRMS>  (358) 
0.082513897371

$$$$

     RDKit          3D

 78 83  0  0  0  0  0  0  0  0999 V2000
   10.2833   43.7662   33.8252 C   0  0  0  0  0  0  0  0  0  0  0  0
   11.4100   43.5932   34.3750 O   0  0  0  0  0  0  0  0  0  0  0  0
    9.3637   42.7255   33.7346 O   0  0  0  0  0  0  0  0  0  0  0  0
    9.8906   41.2266   34.2933 P   0  0  0  0  0  0  0  0  0  0  0  0
   10.3743   41.4558   35.8827 O   0  0  0  0  0  0  0  0  0  0  0  0
    9.9545   45.0695   33.2030 C   0  0  1  0  0  0  0  0  0  0  0  0
   11.0272   46.0322   33.4752 N   0  0  0  0  0  0  0  0  0  0  0  0
    9.7465   44.8483   31.6869 C   0  0  0  0  0  0  0  0  0  0  0  0
    8.7921   45.8408   31.0834 C   0  0  0  0  0  0  0  0  0  0  0  0
    7.4039   45.6020   31.1004 C   0  0  0  0  0  0  0  0  0  0  0  0
    9.2825   46.9898   30.4428 C   0  0  0  0  0  0  0  0  0  0  0  0
    6.5242   46.5048   30.4871 C   0  0  0  0  0  0  0  0  0  0  0  0
    8.4015   47.8918   29.8347 C   0  0  0  0  0  0  0  0  0  0  0  0
    7.0207   47.6461   29.8432 C   0  0  0  0  0  0  0  0  0  0  0  0
    6.1371   48.5453   29.2408 O   0  0  0  0  0  0  0  0  0  0  0  0
    5.8605   48.5735   27.8368 C   0  0  2  0  0  0  0  0  0  0  0  0
    4.9808   47.3881   27.4186 C   0  0  0  0  0  0  0  0  0  0  0  0
    7.1286   48.7924   27.0128 C   0  0  0  0  0  0  0  0  0  0  0  0
    7.5751   50.1314   26.8839 C   0  0  0  0  0  0  0  0  0  0  0  0
    7.8916   47.7479   26.3822 C   0  0  0  0  0  0  0  0  0  0  0  0
    8.7115   50.3902   26.1292 C   0  0  0  0  0  0  0  0  0  0  0  0
    9.0307   48.0729   25.6150 C   0  0  0  0  0  0  0  0  0  0  0  0
    7.5472   46.3669   26.5075 N   0  0  0  0  0  0  0  0  0  0  0  0
    9.3119   51.6073   25.8703 O   0  0  0  0  0  0  0  0  0  0  0  0
    9.4062   49.4047   25.5181 C   0  0  0  0  0  0  0  0  0  0  0  0
    7.2686   45.6408   25.3734 O   0  0  0  0  0  0  0  0  0  0  0  0
    7.8229   45.7583   27.5609 O   0  0  0  0  0  0  0  0  0  0  0  0
   10.4579   51.3677   25.0420 C   0  0  0  0  0  0  0  0  0  0  0  0
   10.4811   49.9479   24.8411 O   0  0  0  0  0  0  0  0  0  0  0  0
    8.8123   40.1851   34.2127 O   0  0  0  0  0  0  0  0  0  0  0  0
   11.2406   40.7945   33.3670 O   0  0  0  0  0  0  0  0  0  0  0  0
   10.9134   40.6866   31.9954 C   0  0  0  0  0  0  0  0  0  0  0  0
   11.5166   39.3787   31.4404 C   0  0  0  0  0  0  0  0  0  0  0  0
   12.7486   39.0849   32.0734 O   0  0  0  0  0  0  0  0  0  0  0  0
   10.6039   38.1884   31.6669 C   0  0  0  0  0  0  0  0  0  0  0  0
   12.9329   37.6776   32.0284 C   0  0  0  0  0  0  0  0  0  0  0  0
    9.6373   38.0938   30.6484 O   0  0  0  0  0  0  0  0  0  0  0  0
   11.5737   37.0141   31.7055 C   0  0  0  0  0  0  0  0  0  0  0  0
   13.4853   37.2120   33.3238 N   0  0  0  0  0  0  0  0  0  0  0  0
   11.6210   36.3379   30.4683 O   0  0  0  0  0  0  0  0  0  0  0  0
   14.4804   36.3319   33.5726 C   0  0  0  0  0  0  0  0  0  0  0  0
   13.1140   37.6275   34.5689 C   0  0  0  0  0  0  0  0  0  0  0  0
   15.2076   35.6152   32.6740 N   0  0  0  0  0  0  0  0  0  0  0  0
   14.6761   36.2307   34.9181 C   0  0  0  0  0  0  0  0  0  0  0  0
   13.8218   37.0451   35.5783 N   0  0  0  0  0  0  0  0  0  0  0  0
   16.1642   34.7600   33.1548 C   0  0  0  0  0  0  0  0  0  0  0  0
   15.6527   35.3507   35.4131 C   0  0  0  0  0  0  0  0  0  0  0  0
   16.3795   34.6315   34.5043 N   0  0  0  0  0  0  0  0  0  0  0  0
   15.9001   35.1933   36.8090 N   0  0  0  0  0  0  0  0  0  0  0  0
    9.0119   45.4318   33.6708 H   0  0  0  0  0  0  0  0  0  0  0  0
   11.8904   45.7660   32.9464 H   0  0  0  0  0  0  0  0  0  0  0  0
   10.7258   46.9688   33.1211 H   0  0  0  0  0  0  0  0  0  0  0  0
    9.3413   43.8332   31.4754 H   0  0  0  0  0  0  0  0  0  0  0  0
   10.7227   44.8819   31.1548 H   0  0  0  0  0  0  0  0  0  0  0  0
    7.0068   44.7182   31.5843 H   0  0  0  0  0  0  0  0  0  0  0  0
   10.3466   47.1895   30.4141 H   0  0  0  0  0  0  0  0  0  0  0  0
    5.4589   46.3141   30.5063 H   0  0  0  0  0  0  0  0  0  0  0  0
    8.7933   48.7797   29.3559 H   0  0  0  0  0  0  0  0  0  0  0  0
    5.2136   49.4627   27.6655 H   0  0  0  0  0  0  0  0  0  0  0  0
    5.3703   46.4279   27.8081 H   0  0  0  0  0  0  0  0  0  0  0  0
    4.8916   47.3407   26.3124 H   0  0  0  0  0  0  0  0  0  0  0  0
    3.9620   47.5179   27.8420 H   0  0  0  0  0  0  0  0  0  0  0  0
    7.0481   50.9509   27.3566 H   0  0  0  0  0  0  0  0  0  0  0  0
    9.6152   47.3035   25.1267 H   0  0  0  0  0  0  0  0  0  0  0  0
   11.3825   51.6963   25.5612 H   0  0  0  0  0  0  0  0  0  0  0  0
   10.3448   51.8905   24.0692 H   0  0  0  0  0  0  0  0  0  0  0  0
   11.3827   41.5439   31.4669 H   0  0  0  0  0  0  0  0  0  0  0  0
    9.8225   40.7225   31.7631 H   0  0  0  0  0  0  0  0  0  0  0  0
   11.6978   39.5037   30.3478 H   0  0  0  0  0  0  0  0  0  0  0  0
   10.1084   38.2787   32.6626 H   0  0  0  0  0  0  0  0  0  0  0  0
   13.6638   37.4472   31.2214 H   0  0  0  0  0  0  0  0  0  0  0  0
    8.9763   37.4191   30.9532 H   0  0  0  0  0  0  0  0  0  0  0  0
   11.2821   36.3054   32.5171 H   0  0  0  0  0  0  0  0  0  0  0  0
   10.8658   35.6936   30.4652 H   0  0  0  0  0  0  0  0  0  0  0  0
   12.3293   38.3523   34.7445 H   0  0  0  0  0  0  0  0  0  0  0  0
   16.7561   34.1778   32.4621 H   0  0  0  0  0  0  0  0  0  0  0  0
   16.6345   34.5300   37.1416 H   0  0  0  0  0  0  0  0  0  0  0  0
   15.3533   35.7361   37.5138 H   0  0  0  0  0  0  0  0  0  0  0  0
  1  2  2  0
  1  3  1  0
  3  4  1  0
  4  5  1  0
  6  1  1  0
  7  6  1  0
  6  8  1  0
  8  9  1  0
  9 10  2  0
 11  9  1  0
 10 12  1  0
 13 11  2  0
 12 14  2  0
 14 13  1  0
 14 15  1  0
 15 16  1  0
 16 17  1  0
 16 18  1  0
 18 19  2  0
 20 18  1  0
 19 21  1  0
 22 20  2  0
 20 23  1  0
 21 24  1  0
 21 25  2  0
 25 22  1  0
 23 26  1  0
 23 27  2  0
 24 28  1  0
 25 29  1  0
 28 29  1  0
  4 30  2  0
  4 31  1  0
 32 31  1  0
 32 33  1  0
 33 34  1  0
 33 35  1  0
 34 36  1  0
 35 37  1  0
 35 38  1  0
 38 36  1  0
 36 39  1  0
 38 40  1  0
 41 39  1  0
 42 39  1  0
 43 41  2  0
 41 44  1  0
 45 42  2  0
 46 43  1  0
 44 47  2  0
 44 45  1  0
 48 46  2  0
 48 47  1  0
 47 49  1  0
  6 50  1  1
  7 51  1  0
  7 52  1  0
  8 53  1  0
  8 54  1  0
 10 55  1  0
 11 56  1  0
 12 57  1  0
 13 58  1  0
 16 59  1  1
 17 60  1  0
 17 61  1  0
 17 62  1  0
 19 63  1  0
 22 64  1  0
 28 65  1  0
 28 66  1  0
 32 67  1  0
 32 68  1  0
 33 69  1  0
 35 70  1  0
 36 71  1  0
 37 72  1  0
 38 73  1  0
 40 74  1  0
 42 75  1  0
 46 76  1  0
 49 77  1  0
 49 78  1  0
M  CHG  3   5  -1  23   1  26  -1
M  END
>  <EmbedRMS>  (359) 
0.0826802692318

$$$$

     RDKit          3D

 78 83  0  0  0  0  0  0  0  0999 V2000
   10.2804   43.7664   33.8250 C   0  0  0  0  0  0  0  0  0  0  0  0
   11.4111   43.5918   34.3667 O   0  0  0  0  0  0  0  0  0  0  0  0
    9.3618   42.7249   33.7345 O   0  0  0  0  0  0  0  0  0  0  0  0
    9.8899   41.2266   34.2940 P   0  0  0  0  0  0  0  0  0  0  0  0
   10.3735   41.4567   35.8832 O   0  0  0  0  0  0  0  0  0  0  0  0
    9.9459   45.0736   33.2113 C   0  0  1  0  0  0  0  0  0  0  0  0
   11.0267   46.0292   33.4707 N   0  0  0  0  0  0  0  0  0  0  0  0
    9.7536   44.8540   31.6951 C   0  0  0  0  0  0  0  0  0  0  0  0
    8.7955   45.8413   31.0852 C   0  0  0  0  0  0  0  0  0  0  0  0
    7.4090   45.6003   31.1006 C   0  0  0  0  0  0  0  0  0  0  0  0
    9.2828   46.9876   30.4398 C   0  0  0  0  0  0  0  0  0  0  0  0
    6.5287   46.5003   30.4845 C   0  0  0  0  0  0  0  0  0  0  0  0
    8.4025   47.8890   29.8295 C   0  0  0  0  0  0  0  0  0  0  0  0
    7.0128   47.6521   29.8490 C   0  0  0  0  0  0  0  0  0  0  0  0
    6.0803   48.5148   29.2496 O   0  0  0  0  0  0  0  0  0  0  0  0
    6.3632   49.7893   28.6661 C   0  0  2  0  0  0  0  0  0  0  0  0
    6.6673   50.8381   29.7426 C   0  0  0  0  0  0  0  0  0  0  0  0
    5.2058   50.2512   27.7963 C   0  0  0  0  0  0  0  0  0  0  0  0
    5.5210   51.0343   26.6584 C   0  0  0  0  0  0  0  0  0  0  0  0
    3.8300   49.9125   28.0513 C   0  0  0  0  0  0  0  0  0  0  0  0
    4.4932   51.4232   25.8100 C   0  0  0  0  0  0  0  0  0  0  0  0
    2.8306   50.3235   27.1403 C   0  0  0  0  0  0  0  0  0  0  0  0
    3.4248   49.1603   29.2055 N   0  0  0  0  0  0  0  0  0  0  0  0
    4.5725   52.1738   24.6528 O   0  0  0  0  0  0  0  0  0  0  0  0
    3.2059   51.0791   26.0383 C   0  0  0  0  0  0  0  0  0  0  0  0
    2.4227   48.2247   29.0908 O   0  0  0  0  0  0  0  0  0  0  0  0
    3.7955   49.5060   30.3453 O   0  0  0  0  0  0  0  0  0  0  0  0
    3.2471   52.3091   24.1219 C   0  0  0  0  0  0  0  0  0  0  0  0
    2.4053   51.5950   25.0374 O   0  0  0  0  0  0  0  0  0  0  0  0
    8.8123   40.1843   34.2134 O   0  0  0  0  0  0  0  0  0  0  0  0
   11.2402   40.7944   33.3688 O   0  0  0  0  0  0  0  0  0  0  0  0
   10.9142   40.6898   31.9970 C   0  0  0  0  0  0  0  0  0  0  0  0
   11.5261   39.3884   31.4376 C   0  0  0  0  0  0  0  0  0  0  0  0
   12.7503   39.0888   32.0817 O   0  0  0  0  0  0  0  0  0  0  0  0
   10.6115   38.1909   31.6461 C   0  0  0  0  0  0  0  0  0  0  0  0
   12.9357   37.6813   32.0304 C   0  0  0  0  0  0  0  0  0  0  0  0
    9.6146   38.0858   30.6533 O   0  0  0  0  0  0  0  0  0  0  0  0
   11.5770   37.0148   31.7013 C   0  0  0  0  0  0  0  0  0  0  0  0
   13.4849   37.2113   33.3247 N   0  0  0  0  0  0  0  0  0  0  0  0
   11.6192   36.3261   30.4725 O   0  0  0  0  0  0  0  0  0  0  0  0
   14.4802   36.3313   33.5730 C   0  0  0  0  0  0  0  0  0  0  0  0
   13.1142   37.6269   34.5698 C   0  0  0  0  0  0  0  0  0  0  0  0
   15.2073   35.6151   32.6741 N   0  0  0  0  0  0  0  0  0  0  0  0
   14.6761   36.2300   34.9184 C   0  0  0  0  0  0  0  0  0  0  0  0
   13.8221   37.0445   35.5789 N   0  0  0  0  0  0  0  0  0  0  0  0
   16.1641   34.7600   33.1546 C   0  0  0  0  0  0  0  0  0  0  0  0
   15.6530   35.3503   35.4131 C   0  0  0  0  0  0  0  0  0  0  0  0
   16.3798   34.6314   34.5041 N   0  0  0  0  0  0  0  0  0  0  0  0
   15.9005   35.1929   36.8090 N   0  0  0  0  0  0  0  0  0  0  0  0
    8.9997   45.4382   33.6726 H   0  0  0  0  0  0  0  0  0  0  0  0
   10.7763   46.9369   33.0159 H   0  0  0  0  0  0  0  0  0  0  0  0
   11.0504   46.2278   34.4981 H   0  0  0  0  0  0  0  0  0  0  0  0
   10.7406   44.9072   31.1835 H   0  0  0  0  0  0  0  0  0  0  0  0
    9.3636   43.8354   31.4716 H   0  0  0  0  0  0  0  0  0  0  0  0
    7.0134   44.7158   31.5843 H   0  0  0  0  0  0  0  0  0  0  0  0
   10.3471   47.1852   30.4053 H   0  0  0  0  0  0  0  0  0  0  0  0
    5.4643   46.3025   30.5032 H   0  0  0  0  0  0  0  0  0  0  0  0
    8.8190   48.7581   29.3420 H   0  0  0  0  0  0  0  0  0  0  0  0
    7.2570   49.6831   28.0131 H   0  0  0  0  0  0  0  0  0  0  0  0
    5.7809   51.0294   30.3797 H   0  0  0  0  0  0  0  0  0  0  0  0
    7.4991   50.5021   30.3944 H   0  0  0  0  0  0  0  0  0  0  0  0
    6.9697   51.7939   29.2639 H   0  0  0  0  0  0  0  0  0  0  0  0
    6.5407   51.3223   26.4347 H   0  0  0  0  0  0  0  0  0  0  0  0
    1.7883   50.0789   27.3001 H   0  0  0  0  0  0  0  0  0  0  0  0
    3.1893   51.8518   23.1119 H   0  0  0  0  0  0  0  0  0  0  0  0
    2.9546   53.3794   24.0874 H   0  0  0  0  0  0  0  0  0  0  0  0
    9.8231   40.7189   31.7644 H   0  0  0  0  0  0  0  0  0  0  0  0
   11.3778   41.5525   31.4722 H   0  0  0  0  0  0  0  0  0  0  0  0
   11.7286   39.5309   30.3515 H   0  0  0  0  0  0  0  0  0  0  0  0
   10.1127   38.2734   32.6377 H   0  0  0  0  0  0  0  0  0  0  0  0
   13.6693   37.4569   31.2242 H   0  0  0  0  0  0  0  0  0  0  0  0
   10.0534   38.1119   29.7635 H   0  0  0  0  0  0  0  0  0  0  0  0
   11.2607   36.3148   32.5102 H   0  0  0  0  0  0  0  0  0  0  0  0
   12.1496   35.5024   30.6325 H   0  0  0  0  0  0  0  0  0  0  0  0
   12.3303   38.3526   34.7456 H   0  0  0  0  0  0  0  0  0  0  0  0
   16.7561   34.1780   32.4618 H   0  0  0  0  0  0  0  0  0  0  0  0
   15.3536   35.7354   37.5140 H   0  0  0  0  0  0  0  0  0  0  0  0
   16.6351   34.5296   37.1414 H   0  0  0  0  0  0  0  0  0  0  0  0
  1  2  2  0
  1  3  1  0
  3  4  1  0
  4  5  1  0
  6  1  1  0
  7  6  1  0
  6  8  1  0
  8  9  1  0
  9 10  2  0
 11  9  1  0
 10 12  1  0
 13 11  2  0
 12 14  2  0
 14 13  1  0
 14 15  1  0
 15 16  1  0
 16 17  1  0
 16 18  1  0
 18 19  2  0
 20 18  1  0
 19 21  1  0
 22 20  2  0
 20 23  1  0
 21 24  1  0
 21 25  2  0
 25 22  1  0
 23 26  1  0
 23 27  2  0
 24 28  1  0
 25 29  1  0
 28 29  1  0
  4 30  2  0
  4 31  1  0
 32 31  1  0
 32 33  1  0
 33 34  1  0
 33 35  1  0
 34 36  1  0
 35 37  1  0
 35 38  1  0
 38 36  1  0
 36 39  1  0
 38 40  1  0
 41 39  1  0
 42 39  1  0
 43 41  2  0
 41 44  1  0
 45 42  2  0
 46 43  1  0
 44 47  2  0
 44 45  1  0
 48 46  2  0
 48 47  1  0
 47 49  1  0
  6 50  1  1
  7 51  1  0
  7 52  1  0
  8 53  1  0
  8 54  1  0
 10 55  1  0
 11 56  1  0
 12 57  1  0
 13 58  1  0
 16 59  1  6
 17 60  1  0
 17 61  1  0
 17 62  1  0
 19 63  1  0
 22 64  1  0
 28 65  1  0
 28 66  1  0
 32 67  1  0
 32 68  1  0
 33 69  1  0
 35 70  1  0
 36 71  1  0
 37 72  1  0
 38 73  1  0
 40 74  1  0
 42 75  1  0
 46 76  1  0
 49 77  1  0
 49 78  1  0
M  CHG  3   5  -1  23   1  26  -1
M  END
>  <EmbedRMS>  (360) 
0.0814301910646

$$$$

     RDKit          3D

 78 83  0  0  0  0  0  0  0  0999 V2000
   10.2837   43.7628   33.8280 C   0  0  0  0  0  0  0  0  0  0  0  0
   11.4099   43.5865   34.3775 O   0  0  0  0  0  0  0  0  0  0  0  0
    9.3625   42.7242   33.7365 O   0  0  0  0  0  0  0  0  0  0  0  0
    9.8887   41.2256   34.2953 P   0  0  0  0  0  0  0  0  0  0  0  0
   10.3725   41.4539   35.8849 O   0  0  0  0  0  0  0  0  0  0  0  0
    9.9551   45.0696   33.2058 C   0  0  1  0  0  0  0  0  0  0  0  0
   11.0209   46.0472   33.4556 N   0  0  0  0  0  0  0  0  0  0  0  0
    9.7507   44.8507   31.6916 C   0  0  0  0  0  0  0  0  0  0  0  0
    8.7947   45.8414   31.0864 C   0  0  0  0  0  0  0  0  0  0  0  0
    7.4086   45.6007   31.0994 C   0  0  0  0  0  0  0  0  0  0  0  0
    9.2828   46.9879   30.4440 C   0  0  0  0  0  0  0  0  0  0  0  0
    6.5264   46.5000   30.4849 C   0  0  0  0  0  0  0  0  0  0  0  0
    8.4006   47.8871   29.8342 C   0  0  0  0  0  0  0  0  0  0  0  0
    7.0180   47.6582   29.8479 C   0  0  0  0  0  0  0  0  0  0  0  0
    6.1940   48.6045   29.2116 O   0  0  0  0  0  0  0  0  0  0  0  0
    4.7615   48.6139   29.1418 C   0  0  2  0  0  0  0  0  0  0  0  0
    4.1689   48.9399   30.5217 C   0  0  0  0  0  0  0  0  0  0  0  0
    4.2219   47.3646   28.4424 C   0  0  0  0  0  0  0  0  0  0  0  0
    3.1641   46.6070   29.0150 C   0  0  0  0  0  0  0  0  0  0  0  0
    4.7866   46.9264   27.1941 C   0  0  0  0  0  0  0  0  0  0  0  0
    2.7413   45.4547   28.3658 C   0  0  0  0  0  0  0  0  0  0  0  0
    4.3269   45.7323   26.5936 C   0  0  0  0  0  0  0  0  0  0  0  0
    5.8207   47.6697   26.5272 N   0  0  0  0  0  0  0  0  0  0  0  0
    1.7421   44.5777   28.7405 O   0  0  0  0  0  0  0  0  0  0  0  0
    3.3007   45.0332   27.2100 C   0  0  0  0  0  0  0  0  0  0  0  0
    6.8062   47.0028   25.8353 O   0  0  0  0  0  0  0  0  0  0  0  0
    5.7248   48.9072   26.3963 O   0  0  0  0  0  0  0  0  0  0  0  0
    1.6682   43.5410   27.7515 C   0  0  0  0  0  0  0  0  0  0  0  0
    2.6840   43.8683   26.7947 O   0  0  0  0  0  0  0  0  0  0  0  0
    8.8104   40.1844   34.2130 O   0  0  0  0  0  0  0  0  0  0  0  0
   11.2395   40.7945   33.3702 O   0  0  0  0  0  0  0  0  0  0  0  0
   10.9142   40.6912   31.9982 C   0  0  0  0  0  0  0  0  0  0  0  0
   11.5268   39.3909   31.4383 C   0  0  0  0  0  0  0  0  0  0  0  0
   12.7519   39.0910   32.0835 O   0  0  0  0  0  0  0  0  0  0  0  0
   10.6115   38.1931   31.6448 C   0  0  0  0  0  0  0  0  0  0  0  0
   12.9414   37.6836   32.0295 C   0  0  0  0  0  0  0  0  0  0  0  0
    9.6062   38.0869   30.6598 O   0  0  0  0  0  0  0  0  0  0  0  0
   11.5824   37.0198   31.6875 C   0  0  0  0  0  0  0  0  0  0  0  0
   13.4839   37.2103   33.3253 N   0  0  0  0  0  0  0  0  0  0  0  0
   11.6184   36.3067   30.4693 O   0  0  0  0  0  0  0  0  0  0  0  0
   14.4802   36.3315   33.5736 C   0  0  0  0  0  0  0  0  0  0  0  0
   13.1126   37.6259   34.5702 C   0  0  0  0  0  0  0  0  0  0  0  0
   15.2080   35.6153   32.6748 N   0  0  0  0  0  0  0  0  0  0  0  0
   14.6758   36.2304   34.9188 C   0  0  0  0  0  0  0  0  0  0  0  0
   13.8209   37.0440   35.5792 N   0  0  0  0  0  0  0  0  0  0  0  0
   16.1648   34.7602   33.1556 C   0  0  0  0  0  0  0  0  0  0  0  0
   15.6529   35.3509   35.4135 C   0  0  0  0  0  0  0  0  0  0  0  0
   16.3799   34.6318   34.5049 N   0  0  0  0  0  0  0  0  0  0  0  0
   15.9002   35.1937   36.8089 N   0  0  0  0  0  0  0  0  0  0  0  0
    9.0100   45.4349   33.6663 H   0  0  0  0  0  0  0  0  0  0  0  0
   11.9360   45.6920   33.0918 H   0  0  0  0  0  0  0  0  0  0  0  0
   11.1148   46.1995   34.4865 H   0  0  0  0  0  0  0  0  0  0  0  0
    9.3516   43.8346   31.4746 H   0  0  0  0  0  0  0  0  0  0  0  0
   10.7309   44.8924   31.1669 H   0  0  0  0  0  0  0  0  0  0  0  0
    7.0140   44.7134   31.5785 H   0  0  0  0  0  0  0  0  0  0  0  0
   10.3470   47.1853   30.4108 H   0  0  0  0  0  0  0  0  0  0  0  0
    5.4743   46.2725   30.5140 H   0  0  0  0  0  0  0  0  0  0  0  0
    8.7946   48.7685   29.3440 H   0  0  0  0  0  0  0  0  0  0  0  0
    4.4784   49.4750   28.5001 H   0  0  0  0  0  0  0  0  0  0  0  0
    3.0841   49.1609   30.4316 H   0  0  0  0  0  0  0  0  0  0  0  0
    4.6646   49.8443   30.9323 H   0  0  0  0  0  0  0  0  0  0  0  0
    4.3167   48.1109   31.2428 H   0  0  0  0  0  0  0  0  0  0  0  0
    2.6821   46.8841   29.9414 H   0  0  0  0  0  0  0  0  0  0  0  0
    4.7389   45.3757   25.6581 H   0  0  0  0  0  0  0  0  0  0  0  0
    0.6690   43.5447   27.2665 H   0  0  0  0  0  0  0  0  0  0  0  0
    1.8808   42.5535   28.2138 H   0  0  0  0  0  0  0  0  0  0  0  0
    9.8230   40.7207   31.7654 H   0  0  0  0  0  0  0  0  0  0  0  0
   11.3803   41.5532   31.4742 H   0  0  0  0  0  0  0  0  0  0  0  0
   11.7309   39.5353   30.3529 H   0  0  0  0  0  0  0  0  0  0  0  0
   10.1214   38.2708   32.6410 H   0  0  0  0  0  0  0  0  0  0  0  0
   13.6854   37.4633   31.2322 H   0  0  0  0  0  0  0  0  0  0  0  0
   10.0236   38.1787   29.7646 H   0  0  0  0  0  0  0  0  0  0  0  0
   11.2758   36.3138   32.4902 H   0  0  0  0  0  0  0  0  0  0  0  0
   11.9839   36.9107   29.7708 H   0  0  0  0  0  0  0  0  0  0  0  0
   12.3276   38.3501   34.7464 H   0  0  0  0  0  0  0  0  0  0  0  0
   16.7582   34.1788   32.4635 H   0  0  0  0  0  0  0  0  0  0  0  0
   15.3528   35.7372   37.5130 H   0  0  0  0  0  0  0  0  0  0  0  0
   16.6357   34.5304   37.1398 H   0  0  0  0  0  0  0  0  0  0  0  0
  1  2  2  0
  1  3  1  0
  3  4  1  0
  4  5  1  0
  6  1  1  0
  7  6  1  0
  6  8  1  0
  8  9  1  0
  9 10  2  0
 11  9  1  0
 10 12  1  0
 13 11  2  0
 12 14  2  0
 14 13  1  0
 14 15  1  0
 15 16  1  0
 16 17  1  0
 16 18  1  0
 18 19  2  0
 20 18  1  0
 19 21  1  0
 22 20  2  0
 20 23  1  0
 21 24  1  0
 21 25  2  0
 25 22  1  0
 23 26  1  0
 23 27  2  0
 24 28  1  0
 25 29  1  0
 28 29  1  0
  4 30  2  0
  4 31  1  0
 32 31  1  0
 32 33  1  0
 33 34  1  0
 33 35  1  0
 34 36  1  0
 35 37  1  0
 35 38  1  0
 38 36  1  0
 36 39  1  0
 38 40  1  0
 41 39  1  0
 42 39  1  0
 43 41  2  0
 41 44  1  0
 45 42  2  0
 46 43  1  0
 44 47  2  0
 44 45  1  0
 48 46  2  0
 48 47  1  0
 47 49  1  0
  6 50  1  1
  7 51  1  0
  7 52  1  0
  8 53  1  0
  8 54  1  0
 10 55  1  0
 11 56  1  0
 12 57  1  0
 13 58  1  0
 16 59  1  6
 17 60  1  0
 17 61  1  0
 17 62  1  0
 19 63  1  0
 22 64  1  0
 28 65  1  0
 28 66  1  0
 32 67  1  0
 32 68  1  0
 33 69  1  0
 35 70  1  0
 36 71  1  0
 37 72  1  0
 38 73  1  0
 40 74  1  0
 42 75  1  0
 46 76  1  0
 49 77  1  0
 49 78  1  0
M  CHG  3   5  -1  23   1  26  -1
M  END
>  <EmbedRMS>  (361) 
0.0817727452703

$$$$

     RDKit          3D

 78 83  0  0  0  0  0  0  0  0999 V2000
   10.2803   43.7665   33.8250 C   0  0  0  0  0  0  0  0  0  0  0  0
   11.4110   43.5919   34.3666 O   0  0  0  0  0  0  0  0  0  0  0  0
    9.3616   42.7251   33.7349 O   0  0  0  0  0  0  0  0  0  0  0  0
    9.8896   41.2269   34.2945 P   0  0  0  0  0  0  0  0  0  0  0  0
   10.3731   41.4568   35.8838 O   0  0  0  0  0  0  0  0  0  0  0  0
    9.9459   45.0736   33.2111 C   0  0  1  0  0  0  0  0  0  0  0  0
   11.0267   46.0291   33.4705 N   0  0  0  0  0  0  0  0  0  0  0  0
    9.7536   44.8537   31.6948 C   0  0  0  0  0  0  0  0  0  0  0  0
    8.7956   45.8408   31.0844 C   0  0  0  0  0  0  0  0  0  0  0  0
    7.4088   45.6008   31.1014 C   0  0  0  0  0  0  0  0  0  0  0  0
    9.2827   46.9879   30.4404 C   0  0  0  0  0  0  0  0  0  0  0  0
    6.5284   46.5017   30.4866 C   0  0  0  0  0  0  0  0  0  0  0  0
    8.4021   47.8896   29.8315 C   0  0  0  0  0  0  0  0  0  0  0  0
    7.0138   47.6498   29.8453 C   0  0  0  0  0  0  0  0  0  0  0  0
    6.0851   48.5144   29.2427 O   0  0  0  0  0  0  0  0  0  0  0  0
    6.4049   49.6442   28.4299 C   0  0  2  0  0  0  0  0  0  0  0  0
    5.1468   50.4834   28.2040 C   0  0  0  0  0  0  0  0  0  0  0  0
    7.0266   49.2211   27.1055 C   0  0  0  0  0  0  0  0  0  0  0  0
    8.2920   49.7619   26.7676 C   0  0  0  0  0  0  0  0  0  0  0  0
    6.3663   48.3554   26.1660 C   0  0  0  0  0  0  0  0  0  0  0  0
    8.8522   49.4333   25.5404 C   0  0  0  0  0  0  0  0  0  0  0  0
    6.9792   48.0711   24.9256 C   0  0  0  0  0  0  0  0  0  0  0  0
    5.0773   47.7847   26.4284 N   0  0  0  0  0  0  0  0  0  0  0  0
   10.0627   49.8396   25.0127 O   0  0  0  0  0  0  0  0  0  0  0  0
    8.2231   48.6250   24.6579 C   0  0  0  0  0  0  0  0  0  0  0  0
    4.1166   47.8076   25.4441 O   0  0  0  0  0  0  0  0  0  0  0  0
    4.9123   47.0337   27.4102 O   0  0  0  0  0  0  0  0  0  0  0  0
   10.2014   49.2450   23.7151 C   0  0  0  0  0  0  0  0  0  0  0  0
    9.0042   48.4779   23.5278 O   0  0  0  0  0  0  0  0  0  0  0  0
    8.8122   40.1844   34.2135 O   0  0  0  0  0  0  0  0  0  0  0  0
   11.2401   40.7950   33.3698 O   0  0  0  0  0  0  0  0  0  0  0  0
   10.9143   40.6914   31.9981 C   0  0  0  0  0  0  0  0  0  0  0  0
   11.5269   39.3912   31.4385 C   0  0  0  0  0  0  0  0  0  0  0  0
   12.7519   39.0911   32.0837 O   0  0  0  0  0  0  0  0  0  0  0  0
   10.6113   38.1932   31.6451 C   0  0  0  0  0  0  0  0  0  0  0  0
   12.9413   37.6838   32.0297 C   0  0  0  0  0  0  0  0  0  0  0  0
    9.6064   38.0878   30.6599 O   0  0  0  0  0  0  0  0  0  0  0  0
   11.5822   37.0197   31.6877 C   0  0  0  0  0  0  0  0  0  0  0  0
   13.4840   37.2105   33.3254 N   0  0  0  0  0  0  0  0  0  0  0  0
   11.6179   36.3072   30.4690 O   0  0  0  0  0  0  0  0  0  0  0  0
   14.4797   36.3309   33.5738 C   0  0  0  0  0  0  0  0  0  0  0  0
   13.1136   37.6269   34.5702 C   0  0  0  0  0  0  0  0  0  0  0  0
   15.2074   35.6152   32.6747 N   0  0  0  0  0  0  0  0  0  0  0  0
   14.6756   36.2298   34.9190 C   0  0  0  0  0  0  0  0  0  0  0  0
   13.8217   37.0445   35.5793 N   0  0  0  0  0  0  0  0  0  0  0  0
   16.1643   34.7603   33.1551 C   0  0  0  0  0  0  0  0  0  0  0  0
   15.6528   35.3503   35.4136 C   0  0  0  0  0  0  0  0  0  0  0  0
   16.3798   34.6316   34.5046 N   0  0  0  0  0  0  0  0  0  0  0  0
   15.9004   35.1930   36.8094 N   0  0  0  0  0  0  0  0  0  0  0  0
    8.9995   45.4383   33.6721 H   0  0  0  0  0  0  0  0  0  0  0  0
   11.0504   46.2277   34.4979 H   0  0  0  0  0  0  0  0  0  0  0  0
   10.7764   46.9368   33.0156 H   0  0  0  0  0  0  0  0  0  0  0  0
    9.3637   43.8351   31.4714 H   0  0  0  0  0  0  0  0  0  0  0  0
   10.7407   44.9070   31.1833 H   0  0  0  0  0  0  0  0  0  0  0  0
    7.0130   44.7168   31.5860 H   0  0  0  0  0  0  0  0  0  0  0  0
   10.3467   47.1880   30.4096 H   0  0  0  0  0  0  0  0  0  0  0  0
    5.4641   46.3041   30.5053 H   0  0  0  0  0  0  0  0  0  0  0  0
    8.8148   48.7680   29.3595 H   0  0  0  0  0  0  0  0  0  0  0  0
    7.1056   50.2959   28.9981 H   0  0  0  0  0  0  0  0  0  0  0  0
    4.3370   49.8841   27.7411 H   0  0  0  0  0  0  0  0  0  0  0  0
    4.7766   50.8684   29.1779 H   0  0  0  0  0  0  0  0  0  0  0  0
    5.3768   51.3509   27.5489 H   0  0  0  0  0  0  0  0  0  0  0  0
    8.8221   50.4292   27.4352 H   0  0  0  0  0  0  0  0  0  0  0  0
    6.5023   47.4271   24.1979 H   0  0  0  0  0  0  0  0  0  0  0  0
   10.2768   50.0335   22.9373 H   0  0  0  0  0  0  0  0  0  0  0  0
   11.0902   48.5802   23.6902 H   0  0  0  0  0  0  0  0  0  0  0  0
    9.8233   40.7200   31.7652 H   0  0  0  0  0  0  0  0  0  0  0  0
   11.3775   41.5548   31.4741 H   0  0  0  0  0  0  0  0  0  0  0  0
   11.7312   39.5362   30.3532 H   0  0  0  0  0  0  0  0  0  0  0  0
   10.1202   38.2696   32.6410 H   0  0  0  0  0  0  0  0  0  0  0  0
   13.6850   37.4639   31.2321 H   0  0  0  0  0  0  0  0  0  0  0  0
   10.0251   38.1792   29.7654 H   0  0  0  0  0  0  0  0  0  0  0  0
   11.2757   36.3135   32.4907 H   0  0  0  0  0  0  0  0  0  0  0  0
   11.9838   36.9111   29.7708 H   0  0  0  0  0  0  0  0  0  0  0  0
   12.3307   38.3536   34.7458 H   0  0  0  0  0  0  0  0  0  0  0  0
   16.7566   34.1787   32.4623 H   0  0  0  0  0  0  0  0  0  0  0  0
   15.3535   35.7355   37.5144 H   0  0  0  0  0  0  0  0  0  0  0  0
   16.6353   34.5301   37.1419 H   0  0  0  0  0  0  0  0  0  0  0  0
  1  2  2  0
  1  3  1  0
  3  4  1  0
  4  5  1  0
  6  1  1  0
  7  6  1  0
  6  8  1  0
  8  9  1  0
  9 10  2  0
 11  9  1  0
 10 12  1  0
 13 11  2  0
 12 14  2  0
 14 13  1  0
 14 15  1  0
 15 16  1  0
 16 17  1  0
 16 18  1  0
 18 19  2  0
 20 18  1  0
 19 21  1  0
 22 20  2  0
 20 23  1  0
 21 24  1  0
 21 25  2  0
 25 22  1  0
 23 26  1  0
 23 27  2  0
 24 28  1  0
 25 29  1  0
 28 29  1  0
  4 30  2  0
  4 31  1  0
 32 31  1  0
 32 33  1  0
 33 34  1  0
 33 35  1  0
 34 36  1  0
 35 37  1  0
 35 38  1  0
 38 36  1  0
 36 39  1  0
 38 40  1  0
 41 39  1  0
 42 39  1  0
 43 41  2  0
 41 44  1  0
 45 42  2  0
 46 43  1  0
 44 47  2  0
 44 45  1  0
 48 46  2  0
 48 47  1  0
 47 49  1  0
  6 50  1  1
  7 51  1  0
  7 52  1  0
  8 53  1  0
  8 54  1  0
 10 55  1  0
 11 56  1  0
 12 57  1  0
 13 58  1  0
 16 59  1  1
 17 60  1  0
 17 61  1  0
 17 62  1  0
 19 63  1  0
 22 64  1  0
 28 65  1  0
 28 66  1  0
 32 67  1  0
 32 68  1  0
 33 69  1  0
 35 70  1  0
 36 71  1  0
 37 72  1  0
 38 73  1  0
 40 74  1  0
 42 75  1  0
 46 76  1  0
 49 77  1  0
 49 78  1  0
M  CHG  3   5  -1  23   1  26  -1
M  END
>  <EmbedRMS>  (362) 
0.0806640008631

$$$$

     RDKit          3D

 78 83  0  0  0  0  0  0  0  0999 V2000
   10.2834   43.7662   33.8257 C   0  0  0  0  0  0  0  0  0  0  0  0
   11.4102   43.5930   34.3752 O   0  0  0  0  0  0  0  0  0  0  0  0
    9.3637   42.7256   33.7349 O   0  0  0  0  0  0  0  0  0  0  0  0
    9.8902   41.2268   34.2942 P   0  0  0  0  0  0  0  0  0  0  0  0
   10.3736   41.4561   35.8836 O   0  0  0  0  0  0  0  0  0  0  0  0
    9.9547   45.0696   33.2037 C   0  0  1  0  0  0  0  0  0  0  0  0
   11.0273   46.0323   33.4760 N   0  0  0  0  0  0  0  0  0  0  0  0
    9.7471   44.8485   31.6877 C   0  0  0  0  0  0  0  0  0  0  0  0
    8.7925   45.8411   31.0848 C   0  0  0  0  0  0  0  0  0  0  0  0
    7.4060   45.6008   31.0988 C   0  0  0  0  0  0  0  0  0  0  0  0
    9.2818   46.9876   30.4415 C   0  0  0  0  0  0  0  0  0  0  0  0
    6.5247   46.5004   30.4836 C   0  0  0  0  0  0  0  0  0  0  0  0
    8.4004   47.8874   29.8314 C   0  0  0  0  0  0  0  0  0  0  0  0
    7.0182   47.6580   29.8482 C   0  0  0  0  0  0  0  0  0  0  0  0
    6.1831   48.5989   29.2237 O   0  0  0  0  0  0  0  0  0  0  0  0
    4.7556   48.6027   29.2665 C   0  0  2  0  0  0  0  0  0  0  0  0
    4.2166   49.6054   28.2455 C   0  0  0  0  0  0  0  0  0  0  0  0
    4.2399   48.9140   30.6653 C   0  0  0  0  0  0  0  0  0  0  0  0
    3.3517   47.9857   31.2632 C   0  0  0  0  0  0  0  0  0  0  0  0
    4.5625   50.1235   31.3731 C   0  0  0  0  0  0  0  0  0  0  0  0
    2.8263   48.2758   32.5151 C   0  0  0  0  0  0  0  0  0  0  0  0
    3.9830   50.3707   32.6373 C   0  0  0  0  0  0  0  0  0  0  0  0
    5.4383   51.1183   30.8260 N   0  0  0  0  0  0  0  0  0  0  0  0
    1.9543   47.5213   33.2762 O   0  0  0  0  0  0  0  0  0  0  0  0
    3.1274   49.4182   33.1725 C   0  0  0  0  0  0  0  0  0  0  0  0
    5.0803   52.4446   30.8970 O   0  0  0  0  0  0  0  0  0  0  0  0
    6.6198   50.8299   30.5500 O   0  0  0  0  0  0  0  0  0  0  0  0
    1.6939   48.2378   34.4909 C   0  0  0  0  0  0  0  0  0  0  0  0
    2.4623   49.4439   34.3832 O   0  0  0  0  0  0  0  0  0  0  0  0
    8.8120   40.1850   34.2131 O   0  0  0  0  0  0  0  0  0  0  0  0
   11.2404   40.7941   33.3690 O   0  0  0  0  0  0  0  0  0  0  0  0
   10.9143   40.6898   31.9972 C   0  0  0  0  0  0  0  0  0  0  0  0
   11.5261   39.3885   31.4376 C   0  0  0  0  0  0  0  0  0  0  0  0
   12.7504   39.0888   32.0816 O   0  0  0  0  0  0  0  0  0  0  0  0
   10.6115   38.1910   31.6460 C   0  0  0  0  0  0  0  0  0  0  0  0
   12.9357   37.6812   32.0303 C   0  0  0  0  0  0  0  0  0  0  0  0
    9.6146   38.0858   30.6534 O   0  0  0  0  0  0  0  0  0  0  0  0
   11.5769   37.0148   31.7012 C   0  0  0  0  0  0  0  0  0  0  0  0
   13.4849   37.2112   33.3247 N   0  0  0  0  0  0  0  0  0  0  0  0
   11.6193   36.3261   30.4724 O   0  0  0  0  0  0  0  0  0  0  0  0
   14.4802   36.3313   33.5730 C   0  0  0  0  0  0  0  0  0  0  0  0
   13.1141   37.6268   34.5698 C   0  0  0  0  0  0  0  0  0  0  0  0
   15.2074   35.6151   32.6741 N   0  0  0  0  0  0  0  0  0  0  0  0
   14.6761   36.2301   34.9184 C   0  0  0  0  0  0  0  0  0  0  0  0
   13.8221   37.0445   35.5789 N   0  0  0  0  0  0  0  0  0  0  0  0
   16.1642   34.7600   33.1547 C   0  0  0  0  0  0  0  0  0  0  0  0
   15.6529   35.3503   35.4131 C   0  0  0  0  0  0  0  0  0  0  0  0
   16.3797   34.6314   34.5042 N   0  0  0  0  0  0  0  0  0  0  0  0
   15.9004   35.1930   36.8090 N   0  0  0  0  0  0  0  0  0  0  0  0
    9.0120   45.4318   33.6714 H   0  0  0  0  0  0  0  0  0  0  0  0
   10.7260   46.9689   33.1216 H   0  0  0  0  0  0  0  0  0  0  0  0
   11.8907   45.7660   32.9476 H   0  0  0  0  0  0  0  0  0  0  0  0
   10.7235   44.8825   31.1559 H   0  0  0  0  0  0  0  0  0  0  0  0
    9.3424   43.8332   31.4759 H   0  0  0  0  0  0  0  0  0  0  0  0
    7.0105   44.7140   31.5787 H   0  0  0  0  0  0  0  0  0  0  0  0
   10.3460   47.1858   30.4095 H   0  0  0  0  0  0  0  0  0  0  0  0
    5.4690   46.2776   30.5032 H   0  0  0  0  0  0  0  0  0  0  0  0
    8.7937   48.7699   29.3428 H   0  0  0  0  0  0  0  0  0  0  0  0
    4.3938   47.6052   28.9314 H   0  0  0  0  0  0  0  0  0  0  0  0
    4.6171   50.6233   28.4260 H   0  0  0  0  0  0  0  0  0  0  0  0
    4.5178   49.2932   27.2230 H   0  0  0  0  0  0  0  0  0  0  0  0
    3.1069   49.6384   28.2892 H   0  0  0  0  0  0  0  0  0  0  0  0
    3.0675   47.0680   30.7642 H   0  0  0  0  0  0  0  0  0  0  0  0
    4.2043   51.2751   33.1895 H   0  0  0  0  0  0  0  0  0  0  0  0
    2.0321   47.6449   35.3666 H   0  0  0  0  0  0  0  0  0  0  0  0
    0.6130   48.4779   34.5710 H   0  0  0  0  0  0  0  0  0  0  0  0
   11.3779   41.5526   31.4726 H   0  0  0  0  0  0  0  0  0  0  0  0
    9.8233   40.7191   31.7647 H   0  0  0  0  0  0  0  0  0  0  0  0
   11.7283   39.5312   30.3515 H   0  0  0  0  0  0  0  0  0  0  0  0
   10.1127   38.2734   32.6377 H   0  0  0  0  0  0  0  0  0  0  0  0
   13.6692   37.4566   31.2242 H   0  0  0  0  0  0  0  0  0  0  0  0
   10.0533   38.1118   29.7636 H   0  0  0  0  0  0  0  0  0  0  0  0
   11.2606   36.3148   32.5102 H   0  0  0  0  0  0  0  0  0  0  0  0
   12.1496   35.5023   30.6324 H   0  0  0  0  0  0  0  0  0  0  0  0
   12.3301   38.3524   34.7455 H   0  0  0  0  0  0  0  0  0  0  0  0
   16.7562   34.1780   32.4619 H   0  0  0  0  0  0  0  0  0  0  0  0
   16.6351   34.5298   37.1415 H   0  0  0  0  0  0  0  0  0  0  0  0
   15.3536   35.7357   37.5139 H   0  0  0  0  0  0  0  0  0  0  0  0
  1  2  2  0
  1  3  1  0
  3  4  1  0
  4  5  1  0
  6  1  1  0
  7  6  1  0
  6  8  1  0
  8  9  1  0
  9 10  2  0
 11  9  1  0
 10 12  1  0
 13 11  2  0
 12 14  2  0
 14 13  1  0
 14 15  1  0
 15 16  1  0
 16 17  1  0
 16 18  1  0
 18 19  2  0
 20 18  1  0
 19 21  1  0
 22 20  2  0
 20 23  1  0
 21 24  1  0
 21 25  2  0
 25 22  1  0
 23 26  1  0
 23 27  2  0
 24 28  1  0
 25 29  1  0
 28 29  1  0
  4 30  2  0
  4 31  1  0
 32 31  1  0
 32 33  1  0
 33 34  1  0
 33 35  1  0
 34 36  1  0
 35 37  1  0
 35 38  1  0
 38 36  1  0
 36 39  1  0
 38 40  1  0
 41 39  1  0
 42 39  1  0
 43 41  2  0
 41 44  1  0
 45 42  2  0
 46 43  1  0
 44 47  2  0
 44 45  1  0
 48 46  2  0
 48 47  1  0
 47 49  1  0
  6 50  1  1
  7 51  1  0
  7 52  1  0
  8 53  1  0
  8 54  1  0
 10 55  1  0
 11 56  1  0
 12 57  1  0
 13 58  1  0
 16 59  1  6
 17 60  1  0
 17 61  1  0
 17 62  1  0
 19 63  1  0
 22 64  1  0
 28 65  1  0
 28 66  1  0
 32 67  1  0
 32 68  1  0
 33 69  1  0
 35 70  1  0
 36 71  1  0
 37 72  1  0
 38 73  1  0
 40 74  1  0
 42 75  1  0
 46 76  1  0
 49 77  1  0
 49 78  1  0
M  CHG  3   5  -1  23   1  26  -1
M  END
>  <EmbedRMS>  (363) 
0.081606397946

$$$$

     RDKit          3D

 78 83  0  0  0  0  0  0  0  0999 V2000
   10.2833   43.7663   33.8258 C   0  0  0  0  0  0  0  0  0  0  0  0
   11.4101   43.5932   34.3752 O   0  0  0  0  0  0  0  0  0  0  0  0
    9.3634   42.7257   33.7353 O   0  0  0  0  0  0  0  0  0  0  0  0
    9.8902   41.2269   34.2942 P   0  0  0  0  0  0  0  0  0  0  0  0
   10.3739   41.4560   35.8835 O   0  0  0  0  0  0  0  0  0  0  0  0
    9.9545   45.0695   33.2033 C   0  0  1  0  0  0  0  0  0  0  0  0
   11.0271   46.0323   33.4755 N   0  0  0  0  0  0  0  0  0  0  0  0
    9.7469   44.8476   31.6874 C   0  0  0  0  0  0  0  0  0  0  0  0
    8.7926   45.8397   31.0831 C   0  0  0  0  0  0  0  0  0  0  0  0
    7.4060   45.6017   31.0994 C   0  0  0  0  0  0  0  0  0  0  0  0
    9.2820   46.9877   30.4434 C   0  0  0  0  0  0  0  0  0  0  0  0
    6.5274   46.5046   30.4861 C   0  0  0  0  0  0  0  0  0  0  0  0
    8.4030   47.8903   29.8338 C   0  0  0  0  0  0  0  0  0  0  0  0
    7.0135   47.6521   29.8437 C   0  0  0  0  0  0  0  0  0  0  0  0
    6.0765   48.5223   29.2521 O   0  0  0  0  0  0  0  0  0  0  0  0
    6.3327   49.5803   28.3130 C   0  0  2  0  0  0  0  0  0  0  0  0
    7.1503   49.0533   27.1156 C   0  0  0  0  0  0  0  0  0  0  0  0
    6.9336   50.8319   28.9593 C   0  0  0  0  0  0  0  0  0  0  0  0
    7.1830   50.8640   30.3578 C   0  0  0  0  0  0  0  0  0  0  0  0
    7.2446   52.0012   28.1811 C   0  0  0  0  0  0  0  0  0  0  0  0
    7.8029   51.9807   30.9019 C   0  0  0  0  0  0  0  0  0  0  0  0
    7.8924   53.1003   28.7879 C   0  0  0  0  0  0  0  0  0  0  0  0
    6.8811   52.1092   26.7973 N   0  0  0  0  0  0  0  0  0  0  0  0
    8.1584   52.2087   32.2175 O   0  0  0  0  0  0  0  0  0  0  0  0
    8.1523   53.0466   30.1488 C   0  0  0  0  0  0  0  0  0  0  0  0
    7.7299   52.7378   25.9158 O   0  0  0  0  0  0  0  0  0  0  0  0
    5.7102   51.8691   26.4383 O   0  0  0  0  0  0  0  0  0  0  0  0
    8.7740   53.5017   32.2917 C   0  0  0  0  0  0  0  0  0  0  0  0
    8.7485   54.0028   30.9483 O   0  0  0  0  0  0  0  0  0  0  0  0
    8.8121   40.1851   34.2131 O   0  0  0  0  0  0  0  0  0  0  0  0
   11.2402   40.7952   33.3682 O   0  0  0  0  0  0  0  0  0  0  0  0
   10.9126   40.6877   31.9968 C   0  0  0  0  0  0  0  0  0  0  0  0
   11.5169   39.3811   31.4421 C   0  0  0  0  0  0  0  0  0  0  0  0
   12.7500   39.0881   32.0759 O   0  0  0  0  0  0  0  0  0  0  0  0
   10.6043   38.1893   31.6659 C   0  0  0  0  0  0  0  0  0  0  0  0
   12.9395   37.6814   32.0280 C   0  0  0  0  0  0  0  0  0  0  0  0
    9.6353   38.0951   30.6499 O   0  0  0  0  0  0  0  0  0  0  0  0
   11.5804   37.0191   31.6934 C   0  0  0  0  0  0  0  0  0  0  0  0
   13.4851   37.2119   33.3244 N   0  0  0  0  0  0  0  0  0  0  0  0
   11.6118   36.3189   30.4673 O   0  0  0  0  0  0  0  0  0  0  0  0
   14.4801   36.3316   33.5732 C   0  0  0  0  0  0  0  0  0  0  0  0
   13.1139   37.6277   34.5692 C   0  0  0  0  0  0  0  0  0  0  0  0
   15.2076   35.6154   32.6744 N   0  0  0  0  0  0  0  0  0  0  0  0
   14.6756   36.2303   34.9186 C   0  0  0  0  0  0  0  0  0  0  0  0
   13.8215   37.0451   35.5786 N   0  0  0  0  0  0  0  0  0  0  0  0
   16.1642   34.7602   33.1551 C   0  0  0  0  0  0  0  0  0  0  0  0
   15.6526   35.3505   35.4134 C   0  0  0  0  0  0  0  0  0  0  0  0
   16.3796   34.6316   34.5045 N   0  0  0  0  0  0  0  0  0  0  0  0
   15.9001   35.1933   36.8093 N   0  0  0  0  0  0  0  0  0  0  0  0
    9.0118   45.4319   33.6708 H   0  0  0  0  0  0  0  0  0  0  0  0
   11.8903   45.7663   32.9467 H   0  0  0  0  0  0  0  0  0  0  0  0
   10.7255   46.9690   33.1214 H   0  0  0  0  0  0  0  0  0  0  0  0
   10.7234   44.8811   31.1556 H   0  0  0  0  0  0  0  0  0  0  0  0
    9.3421   43.8323   31.4762 H   0  0  0  0  0  0  0  0  0  0  0  0
    7.0084   44.7177   31.5827 H   0  0  0  0  0  0  0  0  0  0  0  0
   10.3459   47.1896   30.4209 H   0  0  0  0  0  0  0  0  0  0  0  0
    5.4627   46.3093   30.5070 H   0  0  0  0  0  0  0  0  0  0  0  0
    8.8172   48.7799   29.3865 H   0  0  0  0  0  0  0  0  0  0  0  0
    5.3362   49.8726   27.9214 H   0  0  0  0  0  0  0  0  0  0  0  0
    6.9548   47.9707   26.9624 H   0  0  0  0  0  0  0  0  0  0  0  0
    6.8571   49.5679   26.1787 H   0  0  0  0  0  0  0  0  0  0  0  0
    8.2392   49.2043   27.2598 H   0  0  0  0  0  0  0  0  0  0  0  0
    6.9128   50.0513   31.0156 H   0  0  0  0  0  0  0  0  0  0  0  0
    8.1491   53.9861   28.2212 H   0  0  0  0  0  0  0  0  0  0  0  0
    8.1892   54.1677   32.9603 H   0  0  0  0  0  0  0  0  0  0  0  0
    9.8219   53.4085   32.6461 H   0  0  0  0  0  0  0  0  0  0  0  0
   11.3808   41.5457   31.4686 H   0  0  0  0  0  0  0  0  0  0  0  0
    9.8216   40.7222   31.7647 H   0  0  0  0  0  0  0  0  0  0  0  0
   11.6986   39.5089   30.3499 H   0  0  0  0  0  0  0  0  0  0  0  0
   10.1109   38.2737   32.6630 H   0  0  0  0  0  0  0  0  0  0  0  0
   13.6783   37.4562   31.2271 H   0  0  0  0  0  0  0  0  0  0  0  0
    9.0020   37.3860   30.9348 H   0  0  0  0  0  0  0  0  0  0  0  0
   11.2807   36.3053   32.4921 H   0  0  0  0  0  0  0  0  0  0  0  0
   11.8818   36.9600   29.7584 H   0  0  0  0  0  0  0  0  0  0  0  0
   12.3303   38.3538   34.7445 H   0  0  0  0  0  0  0  0  0  0  0  0
   16.7563   34.1783   32.4623 H   0  0  0  0  0  0  0  0  0  0  0  0
   16.6348   34.5301   37.1418 H   0  0  0  0  0  0  0  0  0  0  0  0
   15.3532   35.7359   37.5142 H   0  0  0  0  0  0  0  0  0  0  0  0
  1  2  2  0
  1  3  1  0
  3  4  1  0
  4  5  1  0
  6  1  1  0
  7  6  1  0
  6  8  1  0
  8  9  1  0
  9 10  2  0
 11  9  1  0
 10 12  1  0
 13 11  2  0
 12 14  2  0
 14 13  1  0
 14 15  1  0
 15 16  1  0
 16 17  1  0
 16 18  1  0
 18 19  2  0
 20 18  1  0
 19 21  1  0
 22 20  2  0
 20 23  1  0
 21 24  1  0
 21 25  2  0
 25 22  1  0
 23 26  1  0
 23 27  2  0
 24 28  1  0
 25 29  1  0
 28 29  1  0
  4 30  2  0
  4 31  1  0
 32 31  1  0
 32 33  1  0
 33 34  1  0
 33 35  1  0
 34 36  1  0
 35 37  1  0
 35 38  1  0
 38 36  1  0
 36 39  1  0
 38 40  1  0
 41 39  1  0
 42 39  1  0
 43 41  2  0
 41 44  1  0
 45 42  2  0
 46 43  1  0
 44 47  2  0
 44 45  1  0
 48 46  2  0
 48 47  1  0
 47 49  1  0
  6 50  1  1
  7 51  1  0
  7 52  1  0
  8 53  1  0
  8 54  1  0
 10 55  1  0
 11 56  1  0
 12 57  1  0
 13 58  1  0
 16 59  1  6
 17 60  1  0
 17 61  1  0
 17 62  1  0
 19 63  1  0
 22 64  1  0
 28 65  1  0
 28 66  1  0
 32 67  1  0
 32 68  1  0
 33 69  1  0
 35 70  1  0
 36 71  1  0
 37 72  1  0
 38 73  1  0
 40 74  1  0
 42 75  1  0
 46 76  1  0
 49 77  1  0
 49 78  1  0
M  CHG  3   5  -1  23   1  26  -1
M  END
>  <EmbedRMS>  (364) 
0.0815932258518

$$$$

     RDKit          3D

 78 83  0  0  0  0  0  0  0  0999 V2000
   10.2834   43.7663   33.8257 C   0  0  0  0  0  0  0  0  0  0  0  0
   11.4102   43.5930   34.3752 O   0  0  0  0  0  0  0  0  0  0  0  0
    9.3635   42.7257   33.7352 O   0  0  0  0  0  0  0  0  0  0  0  0
    9.8899   41.2270   34.2947 P   0  0  0  0  0  0  0  0  0  0  0  0
   10.3732   41.4563   35.8841 O   0  0  0  0  0  0  0  0  0  0  0  0
    9.9547   45.0696   33.2036 C   0  0  1  0  0  0  0  0  0  0  0  0
   11.0273   46.0323   33.4760 N   0  0  0  0  0  0  0  0  0  0  0  0
    9.7471   44.8484   31.6876 C   0  0  0  0  0  0  0  0  0  0  0  0
    8.7925   45.8409   31.0843 C   0  0  0  0  0  0  0  0  0  0  0  0
    7.4058   45.6009   31.0992 C   0  0  0  0  0  0  0  0  0  0  0  0
    9.2817   46.9878   30.4417 C   0  0  0  0  0  0  0  0  0  0  0  0
    6.5248   46.5008   30.4845 C   0  0  0  0  0  0  0  0  0  0  0  0
    8.4004   47.8880   29.8320 C   0  0  0  0  0  0  0  0  0  0  0  0
    7.0186   47.6569   29.8469 C   0  0  0  0  0  0  0  0  0  0  0  0
    6.1812   48.5960   29.2230 O   0  0  0  0  0  0  0  0  0  0  0  0
    4.7519   48.5397   29.1892 C   0  0  2  0  0  0  0  0  0  0  0  0
    4.2414   49.6150   28.2331 C   0  0  0  0  0  0  0  0  0  0  0  0
    4.1609   48.7650   30.5714 C   0  0  0  0  0  0  0  0  0  0  0  0
    4.7798   49.7031   31.4348 C   0  0  0  0  0  0  0  0  0  0  0  0
    2.9427   48.1331   30.9847 C   0  0  0  0  0  0  0  0  0  0  0  0
    4.1912   49.9614   32.6659 C   0  0  0  0  0  0  0  0  0  0  0  0
    2.3817   48.4461   32.2430 C   0  0  0  0  0  0  0  0  0  0  0  0
    2.2575   47.1992   30.1397 N   0  0  0  0  0  0  0  0  0  0  0  0
    4.6186   50.8220   33.6586 O   0  0  0  0  0  0  0  0  0  0  0  0
    3.0428   49.3598   33.0528 C   0  0  0  0  0  0  0  0  0  0  0  0
    2.8755   46.0267   29.7728 O   0  0  0  0  0  0  0  0  0  0  0  0
    1.0262   47.3102   29.9682 O   0  0  0  0  0  0  0  0  0  0  0  0
    3.6781   50.7529   34.7391 C   0  0  0  0  0  0  0  0  0  0  0  0
    2.6877   49.8082   34.3105 O   0  0  0  0  0  0  0  0  0  0  0  0
    8.8120   40.1851   34.2133 O   0  0  0  0  0  0  0  0  0  0  0  0
   11.2403   40.7947   33.3700 O   0  0  0  0  0  0  0  0  0  0  0  0
   10.9144   40.6914   31.9982 C   0  0  0  0  0  0  0  0  0  0  0  0
   11.5270   39.3912   31.4385 C   0  0  0  0  0  0  0  0  0  0  0  0
   12.7520   39.0911   32.0836 O   0  0  0  0  0  0  0  0  0  0  0  0
   10.6113   38.1932   31.6451 C   0  0  0  0  0  0  0  0  0  0  0  0
   12.9413   37.6838   32.0297 C   0  0  0  0  0  0  0  0  0  0  0  0
    9.6064   38.0878   30.6599 O   0  0  0  0  0  0  0  0  0  0  0  0
   11.5822   37.0197   31.6877 C   0  0  0  0  0  0  0  0  0  0  0  0
   13.4840   37.2104   33.3254 N   0  0  0  0  0  0  0  0  0  0  0  0
   11.6179   36.3072   30.4690 O   0  0  0  0  0  0  0  0  0  0  0  0
   14.4797   36.3309   33.5738 C   0  0  0  0  0  0  0  0  0  0  0  0
   13.1136   37.6269   34.5702 C   0  0  0  0  0  0  0  0  0  0  0  0
   15.2074   35.6152   32.6747 N   0  0  0  0  0  0  0  0  0  0  0  0
   14.6756   36.2298   34.9190 C   0  0  0  0  0  0  0  0  0  0  0  0
   13.8217   37.0445   35.5793 N   0  0  0  0  0  0  0  0  0  0  0  0
   16.1643   34.7603   33.1551 C   0  0  0  0  0  0  0  0  0  0  0  0
   15.6528   35.3503   35.4136 C   0  0  0  0  0  0  0  0  0  0  0  0
   16.3798   34.6316   34.5046 N   0  0  0  0  0  0  0  0  0  0  0  0
   15.9004   35.1930   36.8094 N   0  0  0  0  0  0  0  0  0  0  0  0
    9.0120   45.4319   33.6712 H   0  0  0  0  0  0  0  0  0  0  0  0
   10.7259   46.9689   33.1215 H   0  0  0  0  0  0  0  0  0  0  0  0
   11.8907   45.7660   32.9476 H   0  0  0  0  0  0  0  0  0  0  0  0
    9.3425   43.8331   31.4759 H   0  0  0  0  0  0  0  0  0  0  0  0
   10.7236   44.8824   31.1558 H   0  0  0  0  0  0  0  0  0  0  0  0
    7.0100   44.7157   31.5818 H   0  0  0  0  0  0  0  0  0  0  0  0
   10.3460   47.1862   30.4100 H   0  0  0  0  0  0  0  0  0  0  0  0
    5.4671   46.2863   30.5137 H   0  0  0  0  0  0  0  0  0  0  0  0
    8.7935   48.7707   29.3437 H   0  0  0  0  0  0  0  0  0  0  0  0
    4.4533   47.5605   28.7674 H   0  0  0  0  0  0  0  0  0  0  0  0
    4.6614   49.4460   27.2188 H   0  0  0  0  0  0  0  0  0  0  0  0
    3.1329   49.5754   28.1663 H   0  0  0  0  0  0  0  0  0  0  0  0
    4.5491   50.6245   28.5812 H   0  0  0  0  0  0  0  0  0  0  0  0
    5.6850   50.2250   31.1516 H   0  0  0  0  0  0  0  0  0  0  0  0
    1.4625   47.9836   32.5792 H   0  0  0  0  0  0  0  0  0  0  0  0
    3.2124   51.7466   34.9070 H   0  0  0  0  0  0  0  0  0  0  0  0
    4.1788   50.3911   35.6615 H   0  0  0  0  0  0  0  0  0  0  0  0
    9.8234   40.7201   31.7654 H   0  0  0  0  0  0  0  0  0  0  0  0
   11.3777   41.5549   31.4744 H   0  0  0  0  0  0  0  0  0  0  0  0
   11.7311   39.5363   30.3532 H   0  0  0  0  0  0  0  0  0  0  0  0
   10.1202   38.2696   32.6410 H   0  0  0  0  0  0  0  0  0  0  0  0
   13.6850   37.4639   31.2321 H   0  0  0  0  0  0  0  0  0  0  0  0
   10.0251   38.1792   29.7654 H   0  0  0  0  0  0  0  0  0  0  0  0
   11.2757   36.3135   32.4908 H   0  0  0  0  0  0  0  0  0  0  0  0
   11.9838   36.9111   29.7708 H   0  0  0  0  0  0  0  0  0  0  0  0
   12.3307   38.3536   34.7457 H   0  0  0  0  0  0  0  0  0  0  0  0
   16.7566   34.1787   32.4623 H   0  0  0  0  0  0  0  0  0  0  0  0
   15.3535   35.7355   37.5144 H   0  0  0  0  0  0  0  0  0  0  0  0
   16.6353   34.5301   37.1419 H   0  0  0  0  0  0  0  0  0  0  0  0
  1  2  2  0
  1  3  1  0
  3  4  1  0
  4  5  1  0
  6  1  1  0
  7  6  1  0
  6  8  1  0
  8  9  1  0
  9 10  2  0
 11  9  1  0
 10 12  1  0
 13 11  2  0
 12 14  2  0
 14 13  1  0
 14 15  1  0
 15 16  1  0
 16 17  1  0
 16 18  1  0
 18 19  2  0
 20 18  1  0
 19 21  1  0
 22 20  2  0
 20 23  1  0
 21 24  1  0
 21 25  2  0
 25 22  1  0
 23 26  1  0
 23 27  2  0
 24 28  1  0
 25 29  1  0
 28 29  1  0
  4 30  2  0
  4 31  1  0
 32 31  1  0
 32 33  1  0
 33 34  1  0
 33 35  1  0
 34 36  1  0
 35 37  1  0
 35 38  1  0
 38 36  1  0
 36 39  1  0
 38 40  1  0
 41 39  1  0
 42 39  1  0
 43 41  2  0
 41 44  1  0
 45 42  2  0
 46 43  1  0
 44 47  2  0
 44 45  1  0
 48 46  2  0
 48 47  1  0
 47 49  1  0
  6 50  1  1
  7 51  1  0
  7 52  1  0
  8 53  1  0
  8 54  1  0
 10 55  1  0
 11 56  1  0
 12 57  1  0
 13 58  1  0
 16 59  1  6
 17 60  1  0
 17 61  1  0
 17 62  1  0
 19 63  1  0
 22 64  1  0
 28 65  1  0
 28 66  1  0
 32 67  1  0
 32 68  1  0
 33 69  1  0
 35 70  1  0
 36 71  1  0
 37 72  1  0
 38 73  1  0
 40 74  1  0
 42 75  1  0
 46 76  1  0
 49 77  1  0
 49 78  1  0
M  CHG  3   5  -1  23   1  26  -1
M  END
>  <EmbedRMS>  (365) 
0.0808241106713

$$$$

     RDKit          3D

 78 83  0  0  0  0  0  0  0  0999 V2000
   10.2833   43.7663   33.8255 C   0  0  0  0  0  0  0  0  0  0  0  0
   11.4100   43.5933   34.3752 O   0  0  0  0  0  0  0  0  0  0  0  0
    9.3638   42.7255   33.7347 O   0  0  0  0  0  0  0  0  0  0  0  0
    9.8906   41.2266   34.2938 P   0  0  0  0  0  0  0  0  0  0  0  0
   10.3733   41.4559   35.8834 O   0  0  0  0  0  0  0  0  0  0  0  0
    9.9543   45.0698   33.2036 C   0  0  1  0  0  0  0  0  0  0  0  0
   11.0269   46.0325   33.4760 N   0  0  0  0  0  0  0  0  0  0  0  0
    9.7465   44.8488   31.6877 C   0  0  0  0  0  0  0  0  0  0  0  0
    8.7921   45.8415   31.0846 C   0  0  0  0  0  0  0  0  0  0  0  0
    7.4044   45.6001   31.0982 C   0  0  0  0  0  0  0  0  0  0  0  0
    9.2824   46.9883   30.4395 C   0  0  0  0  0  0  0  0  0  0  0  0
    6.5253   46.5004   30.4812 C   0  0  0  0  0  0  0  0  0  0  0  0
    8.4013   47.8885   29.8285 C   0  0  0  0  0  0  0  0  0  0  0  0
    7.0203   47.6544   29.8569 C   0  0  0  0  0  0  0  0  0  0  0  0
    6.1409   48.5579   29.2530 O   0  0  0  0  0  0  0  0  0  0  0  0
    5.5136   49.6364   29.9547 C   0  0  2  0  0  0  0  0  0  0  0  0
    6.5301   50.7341   30.3010 C   0  0  0  0  0  0  0  0  0  0  0  0
    4.7222   49.1298   31.1572 C   0  0  0  0  0  0  0  0  0  0  0  0
    5.3720   48.9462   32.4062 C   0  0  0  0  0  0  0  0  0  0  0  0
    3.3251   48.8146   31.0492 C   0  0  0  0  0  0  0  0  0  0  0  0
    4.6194   48.5215   33.4923 C   0  0  0  0  0  0  0  0  0  0  0  0
    2.6073   48.4079   32.1964 C   0  0  0  0  0  0  0  0  0  0  0  0
    2.6325   48.8661   29.7914 N   0  0  0  0  0  0  0  0  0  0  0  0
    5.0391   48.2861   34.7875 O   0  0  0  0  0  0  0  0  0  0  0  0
    3.2946   48.2714   33.3941 C   0  0  0  0  0  0  0  0  0  0  0  0
    1.3077   49.2356   29.7549 O   0  0  0  0  0  0  0  0  0  0  0  0
    3.1442   48.3612   28.7710 O   0  0  0  0  0  0  0  0  0  0  0  0
    3.9015   47.8622   35.5508 C   0  0  0  0  0  0  0  0  0  0  0  0
    2.8085   47.8667   34.6224 O   0  0  0  0  0  0  0  0  0  0  0  0
    8.8125   40.1849   34.2122 O   0  0  0  0  0  0  0  0  0  0  0  0
   11.2417   40.7943   33.3694 O   0  0  0  0  0  0  0  0  0  0  0  0
   10.9178   40.6904   31.9970 C   0  0  0  0  0  0  0  0  0  0  0  0
   11.5181   39.3814   31.4408 C   0  0  0  0  0  0  0  0  0  0  0  0
   12.7497   39.0870   32.0746 O   0  0  0  0  0  0  0  0  0  0  0  0
   10.6045   38.1892   31.6655 C   0  0  0  0  0  0  0  0  0  0  0  0
   12.9344   37.6801   32.0290 C   0  0  0  0  0  0  0  0  0  0  0  0
    9.6419   38.0758   30.6441 O   0  0  0  0  0  0  0  0  0  0  0  0
   11.5741   37.0170   31.7045 C   0  0  0  0  0  0  0  0  0  0  0  0
   13.4851   37.2126   33.3241 N   0  0  0  0  0  0  0  0  0  0  0  0
   11.6078   36.3407   30.4680 O   0  0  0  0  0  0  0  0  0  0  0  0
   14.4801   36.3321   33.5727 C   0  0  0  0  0  0  0  0  0  0  0  0
   13.1140   37.6278   34.5692 C   0  0  0  0  0  0  0  0  0  0  0  0
   15.2073   35.6155   32.6739 N   0  0  0  0  0  0  0  0  0  0  0  0
   14.6758   36.2306   34.9182 C   0  0  0  0  0  0  0  0  0  0  0  0
   13.8218   37.0451   35.5784 N   0  0  0  0  0  0  0  0  0  0  0  0
   16.1639   34.7602   33.1546 C   0  0  0  0  0  0  0  0  0  0  0  0
   15.6526   35.3506   35.4130 C   0  0  0  0  0  0  0  0  0  0  0  0
   16.3794   34.6316   34.5041 N   0  0  0  0  0  0  0  0  0  0  0  0
   15.9000   35.1933   36.8089 N   0  0  0  0  0  0  0  0  0  0  0  0
    9.0116   45.4319   33.6714 H   0  0  0  0  0  0  0  0  0  0  0  0
   11.8902   45.7665   32.9473 H   0  0  0  0  0  0  0  0  0  0  0  0
   10.7252   46.9692   33.1219 H   0  0  0  0  0  0  0  0  0  0  0  0
   10.7230   44.8828   31.1559 H   0  0  0  0  0  0  0  0  0  0  0  0
    9.3416   43.8337   31.4759 H   0  0  0  0  0  0  0  0  0  0  0  0
    7.0075   44.7147   31.5793 H   0  0  0  0  0  0  0  0  0  0  0  0
   10.3469   47.1851   30.4055 H   0  0  0  0  0  0  0  0  0  0  0  0
    5.4605   46.3057   30.4952 H   0  0  0  0  0  0  0  0  0  0  0  0
    8.7912   48.7691   29.3342 H   0  0  0  0  0  0  0  0  0  0  0  0
    4.8107   50.1249   29.2484 H   0  0  0  0  0  0  0  0  0  0  0  0
    6.9440   51.1650   29.3647 H   0  0  0  0  0  0  0  0  0  0  0  0
    7.3787   50.3381   30.8941 H   0  0  0  0  0  0  0  0  0  0  0  0
    6.0347   51.5479   30.8722 H   0  0  0  0  0  0  0  0  0  0  0  0
    6.4303   49.1205   32.5367 H   0  0  0  0  0  0  0  0  0  0  0  0
    1.5528   48.1691   32.1468 H   0  0  0  0  0  0  0  0  0  0  0  0
    3.7054   48.5771   36.3772 H   0  0  0  0  0  0  0  0  0  0  0  0
    4.0644   46.8376   35.9459 H   0  0  0  0  0  0  0  0  0  0  0  0
    9.8289   40.7386   31.7616 H   0  0  0  0  0  0  0  0  0  0  0  0
   11.3945   41.5458   31.4722 H   0  0  0  0  0  0  0  0  0  0  0  0
   11.6995   39.5069   30.3484 H   0  0  0  0  0  0  0  0  0  0  0  0
   10.1091   38.2635   32.6632 H   0  0  0  0  0  0  0  0  0  0  0  0
   13.6661   37.4515   31.2224 H   0  0  0  0  0  0  0  0  0  0  0  0
    8.9010   38.6927   30.8792 H   0  0  0  0  0  0  0  0  0  0  0  0
   11.2649   36.3083   32.5087 H   0  0  0  0  0  0  0  0  0  0  0  0
   12.1372   35.5141   30.6163 H   0  0  0  0  0  0  0  0  0  0  0  0
   12.3297   38.3530   34.7449 H   0  0  0  0  0  0  0  0  0  0  0  0
   16.7557   34.1780   32.4619 H   0  0  0  0  0  0  0  0  0  0  0  0
   15.3533   35.7360   37.5139 H   0  0  0  0  0  0  0  0  0  0  0  0
   16.6346   34.5300   37.1415 H   0  0  0  0  0  0  0  0  0  0  0  0
  1  2  2  0
  1  3  1  0
  3  4  1  0
  4  5  1  0
  6  1  1  0
  7  6  1  0
  6  8  1  0
  8  9  1  0
  9 10  2  0
 11  9  1  0
 10 12  1  0
 13 11  2  0
 12 14  2  0
 14 13  1  0
 14 15  1  0
 15 16  1  0
 16 17  1  0
 16 18  1  0
 18 19  2  0
 20 18  1  0
 19 21  1  0
 22 20  2  0
 20 23  1  0
 21 24  1  0
 21 25  2  0
 25 22  1  0
 23 26  1  0
 23 27  2  0
 24 28  1  0
 25 29  1  0
 28 29  1  0
  4 30  2  0
  4 31  1  0
 32 31  1  0
 32 33  1  0
 33 34  1  0
 33 35  1  0
 34 36  1  0
 35 37  1  0
 35 38  1  0
 38 36  1  0
 36 39  1  0
 38 40  1  0
 41 39  1  0
 42 39  1  0
 43 41  2  0
 41 44  1  0
 45 42  2  0
 46 43  1  0
 44 47  2  0
 44 45  1  0
 48 46  2  0
 48 47  1  0
 47 49  1  0
  6 50  1  1
  7 51  1  0
  7 52  1  0
  8 53  1  0
  8 54  1  0
 10 55  1  0
 11 56  1  0
 12 57  1  0
 13 58  1  0
 16 59  1  6
 17 60  1  0
 17 61  1  0
 17 62  1  0
 19 63  1  0
 22 64  1  0
 28 65  1  0
 28 66  1  0
 32 67  1  0
 32 68  1  0
 33 69  1  0
 35 70  1  0
 36 71  1  0
 37 72  1  0
 38 73  1  0
 40 74  1  0
 42 75  1  0
 46 76  1  0
 49 77  1  0
 49 78  1  0
M  CHG  3   5  -1  23   1  26  -1
M  END
>  <EmbedRMS>  (366) 
0.0829288262041

$$$$

     RDKit          3D

 78 83  0  0  0  0  0  0  0  0999 V2000
   10.2839   43.7626   33.8276 C   0  0  0  0  0  0  0  0  0  0  0  0
   11.4104   43.5862   34.3767 O   0  0  0  0  0  0  0  0  0  0  0  0
    9.3631   42.7236   33.7354 O   0  0  0  0  0  0  0  0  0  0  0  0
    9.8893   41.2249   34.2943 P   0  0  0  0  0  0  0  0  0  0  0  0
   10.3727   41.4546   35.8837 O   0  0  0  0  0  0  0  0  0  0  0  0
    9.9550   45.0700   33.2067 C   0  0  1  0  0  0  0  0  0  0  0  0
   11.0200   46.0481   33.4574 N   0  0  0  0  0  0  0  0  0  0  0  0
    9.7505   44.8514   31.6926 C   0  0  0  0  0  0  0  0  0  0  0  0
    8.7944   45.8427   31.0883 C   0  0  0  0  0  0  0  0  0  0  0  0
    7.4082   45.6003   31.0995 C   0  0  0  0  0  0  0  0  0  0  0  0
    9.2825   46.9887   30.4442 C   0  0  0  0  0  0  0  0  0  0  0  0
    6.5265   46.4989   30.4836 C   0  0  0  0  0  0  0  0  0  0  0  0
    8.4007   47.8863   29.8312 C   0  0  0  0  0  0  0  0  0  0  0  0
    7.0180   47.6581   29.8482 C   0  0  0  0  0  0  0  0  0  0  0  0
    6.1872   48.5986   29.2076 O   0  0  0  0  0  0  0  0  0  0  0  0
    4.7616   48.7367   29.3312 C   0  0  2  0  0  0  0  0  0  0  0  0
    4.3574   48.8451   30.8159 C   0  0  0  0  0  0  0  0  0  0  0  0
    3.9809   47.6679   28.5611 C   0  0  0  0  0  0  0  0  0  0  0  0
    4.6736   46.6807   27.8095 C   0  0  0  0  0  0  0  0  0  0  0  0
    2.5432   47.6433   28.5634 C   0  0  0  0  0  0  0  0  0  0  0  0
    3.9427   45.6789   27.1855 C   0  0  0  0  0  0  0  0  0  0  0  0
    1.8547   46.5874   27.9237 C   0  0  0  0  0  0  0  0  0  0  0  0
    1.7726   48.6933   29.1656 N   0  0  0  0  0  0  0  0  0  0  0  0
    4.4097   44.6177   26.4338 O   0  0  0  0  0  0  0  0  0  0  0  0
    2.5941   45.6280   27.2488 C   0  0  0  0  0  0  0  0  0  0  0  0
    2.0245   50.0049   28.8369 O   0  0  0  0  0  0  0  0  0  0  0  0
    0.7294   48.4189   29.7939 O   0  0  0  0  0  0  0  0  0  0  0  0
    3.2782   43.8504   26.0009 C   0  0  0  0  0  0  0  0  0  0  0  0
    2.1384   44.5315   26.5425 O   0  0  0  0  0  0  0  0  0  0  0  0
    8.8112   40.1834   34.2129 O   0  0  0  0  0  0  0  0  0  0  0  0
   11.2399   40.7932   33.3693 O   0  0  0  0  0  0  0  0  0  0  0  0
   10.9143   40.6896   31.9973 C   0  0  0  0  0  0  0  0  0  0  0  0
   11.5261   39.3884   31.4375 C   0  0  0  0  0  0  0  0  0  0  0  0
   12.7504   39.0887   32.0815 O   0  0  0  0  0  0  0  0  0  0  0  0
   10.6115   38.1909   31.6460 C   0  0  0  0  0  0  0  0  0  0  0  0
   12.9357   37.6812   32.0303 C   0  0  0  0  0  0  0  0  0  0  0  0
    9.6145   38.0858   30.6533 O   0  0  0  0  0  0  0  0  0  0  0  0
   11.5769   37.0148   31.7012 C   0  0  0  0  0  0  0  0  0  0  0  0
   13.4849   37.2112   33.3247 N   0  0  0  0  0  0  0  0  0  0  0  0
   11.6193   36.3260   30.4724 O   0  0  0  0  0  0  0  0  0  0  0  0
   14.4802   36.3313   33.5730 C   0  0  0  0  0  0  0  0  0  0  0  0
   13.1141   37.6268   34.5697 C   0  0  0  0  0  0  0  0  0  0  0  0
   15.2075   35.6151   32.6741 N   0  0  0  0  0  0  0  0  0  0  0  0
   14.6761   36.2300   34.9184 C   0  0  0  0  0  0  0  0  0  0  0  0
   13.8220   37.0445   35.5789 N   0  0  0  0  0  0  0  0  0  0  0  0
   16.1642   34.7600   33.1547 C   0  0  0  0  0  0  0  0  0  0  0  0
   15.6529   35.3503   35.4131 C   0  0  0  0  0  0  0  0  0  0  0  0
   16.3797   34.6314   34.5042 N   0  0  0  0  0  0  0  0  0  0  0  0
   15.9004   35.1930   36.8090 N   0  0  0  0  0  0  0  0  0  0  0  0
    9.0101   45.4348   33.6674 H   0  0  0  0  0  0  0  0  0  0  0  0
   11.9351   45.6933   33.0931 H   0  0  0  0  0  0  0  0  0  0  0  0
   11.1135   46.1991   34.4887 H   0  0  0  0  0  0  0  0  0  0  0  0
    9.3517   43.8349   31.4760 H   0  0  0  0  0  0  0  0  0  0  0  0
   10.7308   44.8935   31.1678 H   0  0  0  0  0  0  0  0  0  0  0  0
    7.0138   44.7100   31.5738 H   0  0  0  0  0  0  0  0  0  0  0  0
   10.3466   47.1884   30.4132 H   0  0  0  0  0  0  0  0  0  0  0  0
    5.4746   46.2604   30.4829 H   0  0  0  0  0  0  0  0  0  0  0  0
    8.7945   48.7667   29.3394 H   0  0  0  0  0  0  0  0  0  0  0  0
    4.5187   49.7102   28.8572 H   0  0  0  0  0  0  0  0  0  0  0  0
    3.4851   49.5175   30.9405 H   0  0  0  0  0  0  0  0  0  0  0  0
    4.0907   47.8581   31.2449 H   0  0  0  0  0  0  0  0  0  0  0  0
    5.1877   49.2823   31.4100 H   0  0  0  0  0  0  0  0  0  0  0  0
    5.7487   46.6763   27.7069 H   0  0  0  0  0  0  0  0  0  0  0  0
    0.7733   46.5396   27.9214 H   0  0  0  0  0  0  0  0  0  0  0  0
    3.3361   42.8184   26.4061 H   0  0  0  0  0  0  0  0  0  0  0  0
    3.2251   43.8364   24.8921 H   0  0  0  0  0  0  0  0  0  0  0  0
    9.8233   40.7192   31.7644 H   0  0  0  0  0  0  0  0  0  0  0  0
   11.3782   41.5525   31.4733 H   0  0  0  0  0  0  0  0  0  0  0  0
   11.7282   39.5312   30.3515 H   0  0  0  0  0  0  0  0  0  0  0  0
   10.1127   38.2733   32.6376 H   0  0  0  0  0  0  0  0  0  0  0  0
   13.6693   37.4565   31.2242 H   0  0  0  0  0  0  0  0  0  0  0  0
   10.0533   38.1118   29.7635 H   0  0  0  0  0  0  0  0  0  0  0  0
   11.2607   36.3148   32.5101 H   0  0  0  0  0  0  0  0  0  0  0  0
   12.1496   35.5022   30.6323 H   0  0  0  0  0  0  0  0  0  0  0  0
   12.3301   38.3524   34.7455 H   0  0  0  0  0  0  0  0  0  0  0  0
   16.7563   34.1781   32.4619 H   0  0  0  0  0  0  0  0  0  0  0  0
   16.6351   34.5298   37.1416 H   0  0  0  0  0  0  0  0  0  0  0  0
   15.3536   35.7357   37.5140 H   0  0  0  0  0  0  0  0  0  0  0  0
  1  2  2  0
  1  3  1  0
  3  4  1  0
  4  5  1  0
  6  1  1  0
  7  6  1  0
  6  8  1  0
  8  9  1  0
  9 10  2  0
 11  9  1  0
 10 12  1  0
 13 11  2  0
 12 14  2  0
 14 13  1  0
 14 15  1  0
 15 16  1  0
 16 17  1  0
 16 18  1  0
 18 19  2  0
 20 18  1  0
 19 21  1  0
 22 20  2  0
 20 23  1  0
 21 24  1  0
 21 25  2  0
 25 22  1  0
 23 26  1  0
 23 27  2  0
 24 28  1  0
 25 29  1  0
 28 29  1  0
  4 30  2  0
  4 31  1  0
 32 31  1  0
 32 33  1  0
 33 34  1  0
 33 35  1  0
 34 36  1  0
 35 37  1  0
 35 38  1  0
 38 36  1  0
 36 39  1  0
 38 40  1  0
 41 39  1  0
 42 39  1  0
 43 41  2  0
 41 44  1  0
 45 42  2  0
 46 43  1  0
 44 47  2  0
 44 45  1  0
 48 46  2  0
 48 47  1  0
 47 49  1  0
  6 50  1  1
  7 51  1  0
  7 52  1  0
  8 53  1  0
  8 54  1  0
 10 55  1  0
 11 56  1  0
 12 57  1  0
 13 58  1  0
 16 59  1  6
 17 60  1  0
 17 61  1  0
 17 62  1  0
 19 63  1  0
 22 64  1  0
 28 65  1  0
 28 66  1  0
 32 67  1  0
 32 68  1  0
 33 69  1  0
 35 70  1  0
 36 71  1  0
 37 72  1  0
 38 73  1  0
 40 74  1  0
 42 75  1  0
 46 76  1  0
 49 77  1  0
 49 78  1  0
M  CHG  3   5  -1  23   1  26  -1
M  END
>  <EmbedRMS>  (367) 
0.0824878821059

$$$$

     RDKit          3D

 78 83  0  0  0  0  0  0  0  0999 V2000
   10.2834   43.7662   33.8253 C   0  0  0  0  0  0  0  0  0  0  0  0
   11.4101   43.5932   34.3750 O   0  0  0  0  0  0  0  0  0  0  0  0
    9.3637   42.7255   33.7349 O   0  0  0  0  0  0  0  0  0  0  0  0
    9.8903   41.2268   34.2946 P   0  0  0  0  0  0  0  0  0  0  0  0
   10.3728   41.4562   35.8842 O   0  0  0  0  0  0  0  0  0  0  0  0
    9.9545   45.0695   33.2030 C   0  0  1  0  0  0  0  0  0  0  0  0
   11.0272   46.0322   33.4752 N   0  0  0  0  0  0  0  0  0  0  0  0
    9.7464   44.8482   31.6869 C   0  0  0  0  0  0  0  0  0  0  0  0
    8.7921   45.8407   31.0834 C   0  0  0  0  0  0  0  0  0  0  0  0
    7.4039   45.6020   31.1004 C   0  0  0  0  0  0  0  0  0  0  0  0
    9.2825   46.9898   30.4428 C   0  0  0  0  0  0  0  0  0  0  0  0
    6.5242   46.5048   30.4870 C   0  0  0  0  0  0  0  0  0  0  0  0
    8.4015   47.8918   29.8348 C   0  0  0  0  0  0  0  0  0  0  0  0
    7.0207   47.6462   29.8432 C   0  0  0  0  0  0  0  0  0  0  0  0
    6.1370   48.5455   29.2411 O   0  0  0  0  0  0  0  0  0  0  0  0
    5.8615   48.5752   27.8370 C   0  0  2  0  0  0  0  0  0  0  0  0
    4.9837   47.3892   27.4164 C   0  0  0  0  0  0  0  0  0  0  0  0
    7.1300   48.7969   27.0143 C   0  0  0  0  0  0  0  0  0  0  0  0
    7.5749   50.1367   26.8878 C   0  0  0  0  0  0  0  0  0  0  0  0
    7.8947   47.7544   26.3825 C   0  0  0  0  0  0  0  0  0  0  0  0
    8.7116   50.3981   26.1344 C   0  0  0  0  0  0  0  0  0  0  0  0
    9.0340   48.0820   25.6167 C   0  0  0  0  0  0  0  0  0  0  0  0
    7.5520   46.3727   26.5054 N   0  0  0  0  0  0  0  0  0  0  0  0
    9.3106   51.6164   25.8779 O   0  0  0  0  0  0  0  0  0  0  0  0
    9.4079   49.4145   25.5222 C   0  0  0  0  0  0  0  0  0  0  0  0
    7.2760   45.6479   25.3699 O   0  0  0  0  0  0  0  0  0  0  0  0
    7.8270   45.7630   27.5583 O   0  0  0  0  0  0  0  0  0  0  0  0
   10.4575   51.3796   25.0500 C   0  0  0  0  0  0  0  0  0  0  0  0
   10.4826   49.9601   24.8469 O   0  0  0  0  0  0  0  0  0  0  0  0
    8.8125   40.1848   34.2126 O   0  0  0  0  0  0  0  0  0  0  0  0
   11.2416   40.7948   33.3707 O   0  0  0  0  0  0  0  0  0  0  0  0
   10.9179   40.6922   31.9984 C   0  0  0  0  0  0  0  0  0  0  0  0
   11.5175   39.3838   31.4423 C   0  0  0  0  0  0  0  0  0  0  0  0
   12.7508   39.0887   32.0752 O   0  0  0  0  0  0  0  0  0  0  0  0
   10.6028   38.1916   31.6658 C   0  0  0  0  0  0  0  0  0  0  0  0
   12.9384   37.6819   32.0278 C   0  0  0  0  0  0  0  0  0  0  0  0
    9.6371   38.0806   30.6470 O   0  0  0  0  0  0  0  0  0  0  0  0
   11.5780   37.0215   31.6935 C   0  0  0  0  0  0  0  0  0  0  0  0
   13.4844   37.2119   33.3242 N   0  0  0  0  0  0  0  0  0  0  0  0
   11.6095   36.3201   30.4679 O   0  0  0  0  0  0  0  0  0  0  0  0
   14.4797   36.3318   33.5730 C   0  0  0  0  0  0  0  0  0  0  0  0
   13.1136   37.6278   34.5691 C   0  0  0  0  0  0  0  0  0  0  0  0
   15.2073   35.6155   32.6742 N   0  0  0  0  0  0  0  0  0  0  0  0
   14.6754   36.2305   34.9184 C   0  0  0  0  0  0  0  0  0  0  0  0
   13.8213   37.0452   35.5785 N   0  0  0  0  0  0  0  0  0  0  0  0
   16.1640   34.7604   33.1549 C   0  0  0  0  0  0  0  0  0  0  0  0
   15.6524   35.3507   35.4132 C   0  0  0  0  0  0  0  0  0  0  0  0
   16.3794   34.6318   34.5044 N   0  0  0  0  0  0  0  0  0  0  0  0
   15.8999   35.1934   36.8091 N   0  0  0  0  0  0  0  0  0  0  0  0
    9.0119   45.4317   33.6708 H   0  0  0  0  0  0  0  0  0  0  0  0
   11.8904   45.7660   32.9464 H   0  0  0  0  0  0  0  0  0  0  0  0
   10.7257   46.9688   33.1210 H   0  0  0  0  0  0  0  0  0  0  0  0
   10.7227   44.8818   31.1548 H   0  0  0  0  0  0  0  0  0  0  0  0
    9.3413   43.8331   31.4755 H   0  0  0  0  0  0  0  0  0  0  0  0
    7.0068   44.7182   31.5842 H   0  0  0  0  0  0  0  0  0  0  0  0
   10.3466   47.1895   30.4142 H   0  0  0  0  0  0  0  0  0  0  0  0
    5.4589   46.3141   30.5062 H   0  0  0  0  0  0  0  0  0  0  0  0
    8.7933   48.7798   29.3562 H   0  0  0  0  0  0  0  0  0  0  0  0
    5.2136   49.4637   27.6663 H   0  0  0  0  0  0  0  0  0  0  0  0
    3.9643   47.5172   27.8390 H   0  0  0  0  0  0  0  0  0  0  0  0
    4.8956   47.3431   26.3101 H   0  0  0  0  0  0  0  0  0  0  0  0
    5.3741   46.4290   27.8052 H   0  0  0  0  0  0  0  0  0  0  0  0
    7.0466   50.9548   27.3615 H   0  0  0  0  0  0  0  0  0  0  0  0
    9.6198   47.3142   25.1276 H   0  0  0  0  0  0  0  0  0  0  0  0
   10.3444   51.9039   24.0780 H   0  0  0  0  0  0  0  0  0  0  0  0
   11.3813   51.7085   25.5705 H   0  0  0  0  0  0  0  0  0  0  0  0
    9.8291   40.7409   31.7626 H   0  0  0  0  0  0  0  0  0  0  0  0
   11.3952   41.5478   31.4744 H   0  0  0  0  0  0  0  0  0  0  0  0
   11.6982   39.5115   30.3500 H   0  0  0  0  0  0  0  0  0  0  0  0
   10.1117   38.2604   32.6660 H   0  0  0  0  0  0  0  0  0  0  0  0
   13.6767   37.4556   31.2267 H   0  0  0  0  0  0  0  0  0  0  0  0
    8.8962   38.6952   30.8871 H   0  0  0  0  0  0  0  0  0  0  0  0
   11.2791   36.3072   32.4922 H   0  0  0  0  0  0  0  0  0  0  0  0
   11.8828   36.9598   29.7588 H   0  0  0  0  0  0  0  0  0  0  0  0
   12.3300   38.3539   34.7446 H   0  0  0  0  0  0  0  0  0  0  0  0
   16.7561   34.1785   32.4622 H   0  0  0  0  0  0  0  0  0  0  0  0
   16.6347   34.5303   37.1417 H   0  0  0  0  0  0  0  0  0  0  0  0
   15.3531   35.7361   37.5140 H   0  0  0  0  0  0  0  0  0  0  0  0
  1  2  2  0
  1  3  1  0
  3  4  1  0
  4  5  1  0
  6  1  1  0
  7  6  1  0
  6  8  1  0
  8  9  1  0
  9 10  2  0
 11  9  1  0
 10 12  1  0
 13 11  2  0
 12 14  2  0
 14 13  1  0
 14 15  1  0
 15 16  1  0
 16 17  1  0
 16 18  1  0
 18 19  2  0
 20 18  1  0
 19 21  1  0
 22 20  2  0
 20 23  1  0
 21 24  1  0
 21 25  2  0
 25 22  1  0
 23 26  1  0
 23 27  2  0
 24 28  1  0
 25 29  1  0
 28 29  1  0
  4 30  2  0
  4 31  1  0
 32 31  1  0
 32 33  1  0
 33 34  1  0
 33 35  1  0
 34 36  1  0
 35 37  1  0
 35 38  1  0
 38 36  1  0
 36 39  1  0
 38 40  1  0
 41 39  1  0
 42 39  1  0
 43 41  2  0
 41 44  1  0
 45 42  2  0
 46 43  1  0
 44 47  2  0
 44 45  1  0
 48 46  2  0
 48 47  1  0
 47 49  1  0
  6 50  1  1
  7 51  1  0
  7 52  1  0
  8 53  1  0
  8 54  1  0
 10 55  1  0
 11 56  1  0
 12 57  1  0
 13 58  1  0
 16 59  1  1
 17 60  1  0
 17 61  1  0
 17 62  1  0
 19 63  1  0
 22 64  1  0
 28 65  1  0
 28 66  1  0
 32 67  1  0
 32 68  1  0
 33 69  1  0
 35 70  1  0
 36 71  1  0
 37 72  1  0
 38 73  1  0
 40 74  1  0
 42 75  1  0
 46 76  1  0
 49 77  1  0
 49 78  1  0
M  CHG  3   5  -1  23   1  26  -1
M  END
>  <EmbedRMS>  (368) 
0.0820985192343

$$$$

     RDKit          3D

 78 83  0  0  0  0  0  0  0  0999 V2000
   10.2801   43.7667   33.8250 C   0  0  0  0  0  0  0  0  0  0  0  0
   11.4109   43.5921   34.3665 O   0  0  0  0  0  0  0  0  0  0  0  0
    9.3617   42.7251   33.7345 O   0  0  0  0  0  0  0  0  0  0  0  0
    9.8898   41.2268   34.2939 P   0  0  0  0  0  0  0  0  0  0  0  0
   10.3735   41.4567   35.8832 O   0  0  0  0  0  0  0  0  0  0  0  0
    9.9454   45.0740   33.2114 C   0  0  1  0  0  0  0  0  0  0  0  0
   11.0261   46.0296   33.4709 N   0  0  0  0  0  0  0  0  0  0  0  0
    9.7533   44.8546   31.6952 C   0  0  0  0  0  0  0  0  0  0  0  0
    8.7952   45.8419   31.0854 C   0  0  0  0  0  0  0  0  0  0  0  0
    7.4077   45.5991   31.0994 C   0  0  0  0  0  0  0  0  0  0  0  0
    9.2832   46.9877   30.4367 C   0  0  0  0  0  0  0  0  0  0  0  0
    6.5273   46.4981   30.4816 C   0  0  0  0  0  0  0  0  0  0  0  0
    8.4011   47.8872   29.8263 C   0  0  0  0  0  0  0  0  0  0  0  0
    7.0187   47.6539   29.8592 C   0  0  0  0  0  0  0  0  0  0  0  0
    6.1243   48.5474   29.2613 O   0  0  0  0  0  0  0  0  0  0  0  0
    5.7126   49.7982   29.8303 C   0  0  2  0  0  0  0  0  0  0  0  0
    6.8692   50.8002   29.9259 C   0  0  0  0  0  0  0  0  0  0  0  0
    5.0060   49.6014   31.1692 C   0  0  0  0  0  0  0  0  0  0  0  0
    5.7513   49.1438   32.2870 C   0  0  0  0  0  0  0  0  0  0  0  0
    3.5911   49.7998   31.3163 C   0  0  0  0  0  0  0  0  0  0  0  0
    5.0788   48.8620   33.4681 C   0  0  0  0  0  0  0  0  0  0  0  0
    2.9593   49.4820   32.5390 C   0  0  0  0  0  0  0  0  0  0  0  0
    2.7877   50.3333   30.2554 N   0  0  0  0  0  0  0  0  0  0  0  0
    5.5973   48.3939   34.6601 O   0  0  0  0  0  0  0  0  0  0  0  0
    3.7413   49.0182   33.5873 C   0  0  0  0  0  0  0  0  0  0  0  0
    1.5559   49.7797   29.9935 O   0  0  0  0  0  0  0  0  0  0  0  0
    3.0586   51.4536   29.7762 O   0  0  0  0  0  0  0  0  0  0  0  0
    4.5127   48.2480   35.5869 C   0  0  0  0  0  0  0  0  0  0  0  0
    3.3457   48.6583   34.8612 O   0  0  0  0  0  0  0  0  0  0  0  0
    8.8123   40.1845   34.2134 O   0  0  0  0  0  0  0  0  0  0  0  0
   11.2402   40.7945   33.3688 O   0  0  0  0  0  0  0  0  0  0  0  0
   10.9142   40.6898   31.9970 C   0  0  0  0  0  0  0  0  0  0  0  0
   11.5260   39.3884   31.4376 C   0  0  0  0  0  0  0  0  0  0  0  0
   12.7504   39.0888   32.0816 O   0  0  0  0  0  0  0  0  0  0  0  0
   10.6114   38.1909   31.6460 C   0  0  0  0  0  0  0  0  0  0  0  0
   12.9357   37.6813   32.0303 C   0  0  0  0  0  0  0  0  0  0  0  0
    9.6145   38.0858   30.6534 O   0  0  0  0  0  0  0  0  0  0  0  0
   11.5769   37.0148   31.7012 C   0  0  0  0  0  0  0  0  0  0  0  0
   13.4849   37.2112   33.3247 N   0  0  0  0  0  0  0  0  0  0  0  0
   11.6193   36.3261   30.4724 O   0  0  0  0  0  0  0  0  0  0  0  0
   14.4802   36.3313   33.5730 C   0  0  0  0  0  0  0  0  0  0  0  0
   13.1141   37.6268   34.5698 C   0  0  0  0  0  0  0  0  0  0  0  0
   15.2075   35.6151   32.6741 N   0  0  0  0  0  0  0  0  0  0  0  0
   14.6761   36.2300   34.9184 C   0  0  0  0  0  0  0  0  0  0  0  0
   13.8221   37.0445   35.5789 N   0  0  0  0  0  0  0  0  0  0  0  0
   16.1642   34.7600   33.1547 C   0  0  0  0  0  0  0  0  0  0  0  0
   15.6529   35.3503   35.4131 C   0  0  0  0  0  0  0  0  0  0  0  0
   16.3798   34.6314   34.5042 N   0  0  0  0  0  0  0  0  0  0  0  0
   15.9004   35.1930   36.8090 N   0  0  0  0  0  0  0  0  0  0  0  0
    8.9989   45.4385   33.6725 H   0  0  0  0  0  0  0  0  0  0  0  0
   10.7755   46.9372   33.0159 H   0  0  0  0  0  0  0  0  0  0  0  0
   11.0495   46.2283   34.4983 H   0  0  0  0  0  0  0  0  0  0  0  0
    9.3634   43.8360   31.4715 H   0  0  0  0  0  0  0  0  0  0  0  0
   10.7404   44.9080   31.1839 H   0  0  0  0  0  0  0  0  0  0  0  0
    7.0122   44.7145   31.5831 H   0  0  0  0  0  0  0  0  0  0  0  0
   10.3476   47.1833   30.3966 H   0  0  0  0  0  0  0  0  0  0  0  0
    5.4621   46.3059   30.5013 H   0  0  0  0  0  0  0  0  0  0  0  0
    8.7960   48.7562   29.3173 H   0  0  0  0  0  0  0  0  0  0  0  0
    5.0119   50.2304   29.0928 H   0  0  0  0  0  0  0  0  0  0  0  0
    7.6416   50.4715   30.6498 H   0  0  0  0  0  0  0  0  0  0  0  0
    7.3445   50.9200   28.9294 H   0  0  0  0  0  0  0  0  0  0  0  0
    6.4828   51.7897   30.2509 H   0  0  0  0  0  0  0  0  0  0  0  0
    6.8199   48.9865   32.2388 H   0  0  0  0  0  0  0  0  0  0  0  0
    1.8935   49.6160   32.6728 H   0  0  0  0  0  0  0  0  0  0  0  0
    4.4157   47.1875   35.9006 H   0  0  0  0  0  0  0  0  0  0  0  0
    4.6682   48.9069   36.4668 H   0  0  0  0  0  0  0  0  0  0  0  0
    9.8232   40.7190   31.7645 H   0  0  0  0  0  0  0  0  0  0  0  0
   11.3777   41.5526   31.4723 H   0  0  0  0  0  0  0  0  0  0  0  0
   11.7283   39.5311   30.3515 H   0  0  0  0  0  0  0  0  0  0  0  0
   10.1127   38.2734   32.6376 H   0  0  0  0  0  0  0  0  0  0  0  0
   13.6692   37.4567   31.2242 H   0  0  0  0  0  0  0  0  0  0  0  0
   10.0533   38.1118   29.7636 H   0  0  0  0  0  0  0  0  0  0  0  0
   11.2607   36.3148   32.5102 H   0  0  0  0  0  0  0  0  0  0  0  0
   12.1496   35.5023   30.6324 H   0  0  0  0  0  0  0  0  0  0  0  0
   12.3301   38.3524   34.7455 H   0  0  0  0  0  0  0  0  0  0  0  0
   16.7562   34.1781   32.4619 H   0  0  0  0  0  0  0  0  0  0  0  0
   15.3536   35.7357   37.5139 H   0  0  0  0  0  0  0  0  0  0  0  0
   16.6351   34.5298   37.1416 H   0  0  0  0  0  0  0  0  0  0  0  0
  1  2  2  0
  1  3  1  0
  3  4  1  0
  4  5  1  0
  6  1  1  0
  7  6  1  0
  6  8  1  0
  8  9  1  0
  9 10  2  0
 11  9  1  0
 10 12  1  0
 13 11  2  0
 12 14  2  0
 14 13  1  0
 14 15  1  0
 15 16  1  0
 16 17  1  0
 16 18  1  0
 18 19  2  0
 20 18  1  0
 19 21  1  0
 22 20  2  0
 20 23  1  0
 21 24  1  0
 21 25  2  0
 25 22  1  0
 23 26  1  0
 23 27  2  0
 24 28  1  0
 25 29  1  0
 28 29  1  0
  4 30  2  0
  4 31  1  0
 32 31  1  0
 32 33  1  0
 33 34  1  0
 33 35  1  0
 34 36  1  0
 35 37  1  0
 35 38  1  0
 38 36  1  0
 36 39  1  0
 38 40  1  0
 41 39  1  0
 42 39  1  0
 43 41  2  0
 41 44  1  0
 45 42  2  0
 46 43  1  0
 44 47  2  0
 44 45  1  0
 48 46  2  0
 48 47  1  0
 47 49  1  0
  6 50  1  1
  7 51  1  0
  7 52  1  0
  8 53  1  0
  8 54  1  0
 10 55  1  0
 11 56  1  0
 12 57  1  0
 13 58  1  0
 16 59  1  6
 17 60  1  0
 17 61  1  0
 17 62  1  0
 19 63  1  0
 22 64  1  0
 28 65  1  0
 28 66  1  0
 32 67  1  0
 32 68  1  0
 33 69  1  0
 35 70  1  0
 36 71  1  0
 37 72  1  0
 38 73  1  0
 40 74  1  0
 42 75  1  0
 46 76  1  0
 49 77  1  0
 49 78  1  0
M  CHG  3   5  -1  23   1  26  -1
M  END
>  <EmbedRMS>  (369) 
0.081551650298

$$$$

     RDKit          3D

 78 83  0  0  0  0  0  0  0  0999 V2000
   10.2835   43.7662   33.8256 C   0  0  0  0  0  0  0  0  0  0  0  0
   11.4102   43.5930   34.3752 O   0  0  0  0  0  0  0  0  0  0  0  0
    9.3638   42.7255   33.7348 O   0  0  0  0  0  0  0  0  0  0  0  0
    9.8906   41.2266   34.2933 P   0  0  0  0  0  0  0  0  0  0  0  0
   10.3743   41.4557   35.8827 O   0  0  0  0  0  0  0  0  0  0  0  0
    9.9548   45.0695   33.2034 C   0  0  1  0  0  0  0  0  0  0  0  0
   11.0274   46.0322   33.4759 N   0  0  0  0  0  0  0  0  0  0  0  0
    9.7473   44.8483   31.6874 C   0  0  0  0  0  0  0  0  0  0  0  0
    8.7927   45.8407   31.0840 C   0  0  0  0  0  0  0  0  0  0  0  0
    7.4061   45.6012   31.0995 C   0  0  0  0  0  0  0  0  0  0  0  0
    9.2817   46.9879   30.4424 C   0  0  0  0  0  0  0  0  0  0  0  0
    6.5242   46.5014   30.4857 C   0  0  0  0  0  0  0  0  0  0  0  0
    8.4003   47.8884   29.8334 C   0  0  0  0  0  0  0  0  0  0  0  0
    7.0184   47.6562   29.8439 C   0  0  0  0  0  0  0  0  0  0  0  0
    6.1864   48.5982   29.2159 O   0  0  0  0  0  0  0  0  0  0  0  0
    4.7733   48.4782   29.0241 C   0  0  2  0  0  0  0  0  0  0  0  0
    4.4756   47.4634   27.9143 C   0  0  0  0  0  0  0  0  0  0  0  0
    4.2078   49.8334   28.6437 C   0  0  0  0  0  0  0  0  0  0  0  0
    4.8974   50.6078   27.6777 C   0  0  0  0  0  0  0  0  0  0  0  0
    3.0265   50.3693   29.2573 C   0  0  0  0  0  0  0  0  0  0  0  0
    4.4237   51.8796   27.3844 C   0  0  0  0  0  0  0  0  0  0  0  0
    2.6017   51.6778   28.9300 C   0  0  0  0  0  0  0  0  0  0  0  0
    2.2407   49.5988   30.1803 N   0  0  0  0  0  0  0  0  0  0  0  0
    4.9372   52.8035   26.4946 O   0  0  0  0  0  0  0  0  0  0  0  0
    3.3278   52.3940   27.9879 C   0  0  0  0  0  0  0  0  0  0  0  0
    1.8715   48.3116   29.8649 O   0  0  0  0  0  0  0  0  0  0  0  0
    1.6993   50.1581   31.1563 O   0  0  0  0  0  0  0  0  0  0  0  0
    4.1082   53.9727   26.5434 C   0  0  0  0  0  0  0  0  0  0  0  0
    3.0925   53.6686   27.5092 O   0  0  0  0  0  0  0  0  0  0  0  0
    8.8122   40.1851   34.2127 O   0  0  0  0  0  0  0  0  0  0  0  0
   11.2406   40.7945   33.3670 O   0  0  0  0  0  0  0  0  0  0  0  0
   10.9134   40.6866   31.9954 C   0  0  0  0  0  0  0  0  0  0  0  0
   11.5166   39.3787   31.4404 C   0  0  0  0  0  0  0  0  0  0  0  0
   12.7486   39.0849   32.0735 O   0  0  0  0  0  0  0  0  0  0  0  0
   10.6039   38.1884   31.6669 C   0  0  0  0  0  0  0  0  0  0  0  0
   12.9329   37.6776   32.0284 C   0  0  0  0  0  0  0  0  0  0  0  0
    9.6374   38.0938   30.6484 O   0  0  0  0  0  0  0  0  0  0  0  0
   11.5737   37.0141   31.7055 C   0  0  0  0  0  0  0  0  0  0  0  0
   13.4853   37.2120   33.3238 N   0  0  0  0  0  0  0  0  0  0  0  0
   11.6210   36.3379   30.4683 O   0  0  0  0  0  0  0  0  0  0  0  0
   14.4804   36.3319   33.5726 C   0  0  0  0  0  0  0  0  0  0  0  0
   13.1140   37.6274   34.5689 C   0  0  0  0  0  0  0  0  0  0  0  0
   15.2075   35.6152   32.6740 N   0  0  0  0  0  0  0  0  0  0  0  0
   14.6761   36.2306   34.9181 C   0  0  0  0  0  0  0  0  0  0  0  0
   13.8218   37.0451   35.5783 N   0  0  0  0  0  0  0  0  0  0  0  0
   16.1642   34.7600   33.1548 C   0  0  0  0  0  0  0  0  0  0  0  0
   15.6528   35.3507   35.4131 C   0  0  0  0  0  0  0  0  0  0  0  0
   16.3795   34.6315   34.5043 N   0  0  0  0  0  0  0  0  0  0  0  0
   15.9001   35.1933   36.8090 N   0  0  0  0  0  0  0  0  0  0  0  0
    9.0120   45.4317   33.6711 H   0  0  0  0  0  0  0  0  0  0  0  0
   11.8908   45.7659   32.9476 H   0  0  0  0  0  0  0  0  0  0  0  0
   10.7261   46.9688   33.1214 H   0  0  0  0  0  0  0  0  0  0  0  0
    9.3428   43.8330   31.4757 H   0  0  0  0  0  0  0  0  0  0  0  0
   10.7238   44.8824   31.1557 H   0  0  0  0  0  0  0  0  0  0  0  0
    7.0106   44.7167   31.5836 H   0  0  0  0  0  0  0  0  0  0  0  0
   10.3459   47.1867   30.4113 H   0  0  0  0  0  0  0  0  0  0  0  0
    5.4666   46.2855   30.5237 H   0  0  0  0  0  0  0  0  0  0  0  0
    8.7940   48.7708   29.3449 H   0  0  0  0  0  0  0  0  0  0  0  0
    4.3166   48.1366   29.9736 H   0  0  0  0  0  0  0  0  0  0  0  0
    3.3820   47.4037   27.7302 H   0  0  0  0  0  0  0  0  0  0  0  0
    4.9833   47.7582   26.9713 H   0  0  0  0  0  0  0  0  0  0  0  0
    4.8332   46.4539   28.2018 H   0  0  0  0  0  0  0  0  0  0  0  0
    5.7865   50.2363   27.1838 H   0  0  0  0  0  0  0  0  0  0  0  0
    1.7165   52.1115   29.3773 H   0  0  0  0  0  0  0  0  0  0  0  0
    4.7015   54.8506   26.8748 H   0  0  0  0  0  0  0  0  0  0  0  0
    3.6487   54.1595   25.5502 H   0  0  0  0  0  0  0  0  0  0  0  0
   11.3827   41.5438   31.4669 H   0  0  0  0  0  0  0  0  0  0  0  0
    9.8225   40.7225   31.7631 H   0  0  0  0  0  0  0  0  0  0  0  0
   11.6978   39.5037   30.3478 H   0  0  0  0  0  0  0  0  0  0  0  0
   10.1084   38.2786   32.6627 H   0  0  0  0  0  0  0  0  0  0  0  0
   13.6638   37.4472   31.2214 H   0  0  0  0  0  0  0  0  0  0  0  0
    8.9763   37.4191   30.9532 H   0  0  0  0  0  0  0  0  0  0  0  0
   11.2821   36.3054   32.5172 H   0  0  0  0  0  0  0  0  0  0  0  0
   10.8658   35.6935   30.4652 H   0  0  0  0  0  0  0  0  0  0  0  0
   12.3293   38.3522   34.7445 H   0  0  0  0  0  0  0  0  0  0  0  0
   16.7561   34.1778   32.4621 H   0  0  0  0  0  0  0  0  0  0  0  0
   16.6346   34.5300   37.1416 H   0  0  0  0  0  0  0  0  0  0  0  0
   15.3533   35.7361   37.5139 H   0  0  0  0  0  0  0  0  0  0  0  0
  1  2  2  0
  1  3  1  0
  3  4  1  0
  4  5  1  0
  6  1  1  0
  7  6  1  0
  6  8  1  0
  8  9  1  0
  9 10  2  0
 11  9  1  0
 10 12  1  0
 13 11  2  0
 12 14  2  0
 14 13  1  0
 14 15  1  0
 15 16  1  0
 16 17  1  0
 16 18  1  0
 18 19  2  0
 20 18  1  0
 19 21  1  0
 22 20  2  0
 20 23  1  0
 21 24  1  0
 21 25  2  0
 25 22  1  0
 23 26  1  0
 23 27  2  0
 24 28  1  0
 25 29  1  0
 28 29  1  0
  4 30  2  0
  4 31  1  0
 32 31  1  0
 32 33  1  0
 33 34  1  0
 33 35  1  0
 34 36  1  0
 35 37  1  0
 35 38  1  0
 38 36  1  0
 36 39  1  0
 38 40  1  0
 41 39  1  0
 42 39  1  0
 43 41  2  0
 41 44  1  0
 45 42  2  0
 46 43  1  0
 44 47  2  0
 44 45  1  0
 48 46  2  0
 48 47  1  0
 47 49  1  0
  6 50  1  1
  7 51  1  0
  7 52  1  0
  8 53  1  0
  8 54  1  0
 10 55  1  0
 11 56  1  0
 12 57  1  0
 13 58  1  0
 16 59  1  1
 17 60  1  0
 17 61  1  0
 17 62  1  0
 19 63  1  0
 22 64  1  0
 28 65  1  0
 28 66  1  0
 32 67  1  0
 32 68  1  0
 33 69  1  0
 35 70  1  0
 36 71  1  0
 37 72  1  0
 38 73  1  0
 40 74  1  0
 42 75  1  0
 46 76  1  0
 49 77  1  0
 49 78  1  0
M  CHG  3   5  -1  23   1  26  -1
M  END
>  <EmbedRMS>  (370) 
0.0825449504379

$$$$

     RDKit          3D

 78 83  0  0  0  0  0  0  0  0999 V2000
   10.2803   43.7664   33.8246 C   0  0  0  0  0  0  0  0  0  0  0  0
   11.4109   43.5920   34.3664 O   0  0  0  0  0  0  0  0  0  0  0  0
    9.3617   42.7250   33.7343 O   0  0  0  0  0  0  0  0  0  0  0  0
    9.8901   41.2266   34.2931 P   0  0  0  0  0  0  0  0  0  0  0  0
   10.3742   41.4564   35.8823 O   0  0  0  0  0  0  0  0  0  0  0  0
    9.9458   45.0736   33.2107 C   0  0  1  0  0  0  0  0  0  0  0  0
   11.0266   46.0292   33.4702 N   0  0  0  0  0  0  0  0  0  0  0  0
    9.7533   44.8542   31.6943 C   0  0  0  0  0  0  0  0  0  0  0  0
    8.7952   45.8414   31.0842 C   0  0  0  0  0  0  0  0  0  0  0  0
    7.4069   45.6009   31.1020 C   0  0  0  0  0  0  0  0  0  0  0  0
    9.2832   46.9899   30.4403 C   0  0  0  0  0  0  0  0  0  0  0  0
    6.5255   46.5024   30.4881 C   0  0  0  0  0  0  0  0  0  0  0  0
    8.4006   47.8905   29.8328 C   0  0  0  0  0  0  0  0  0  0  0  0
    7.0206   47.6447   29.8444 C   0  0  0  0  0  0  0  0  0  0  0  0
    6.1407   48.5524   29.2496 O   0  0  0  0  0  0  0  0  0  0  0  0
    5.7762   48.5245   27.8658 C   0  0  2  0  0  0  0  0  0  0  0  0
    4.7920   47.3878   27.5707 C   0  0  0  0  0  0  0  0  0  0  0  0
    7.0024   48.5910   26.9558 C   0  0  0  0  0  0  0  0  0  0  0  0
    7.4529   49.8821   26.5814 C   0  0  0  0  0  0  0  0  0  0  0  0
    7.7749   47.4481   26.5486 C   0  0  0  0  0  0  0  0  0  0  0  0
    8.6170   49.9956   25.8328 C   0  0  0  0  0  0  0  0  0  0  0  0
    8.9541   47.6249   25.7943 C   0  0  0  0  0  0  0  0  0  0  0  0
    7.3877   46.1122   26.8727 N   0  0  0  0  0  0  0  0  0  0  0  0
    9.2302   51.1429   25.3672 O   0  0  0  0  0  0  0  0  0  0  0  0
    9.3367   48.9148   25.4572 C   0  0  0  0  0  0  0  0  0  0  0  0
    8.1598   45.3925   27.7534 O   0  0  0  0  0  0  0  0  0  0  0  0
    6.6460   45.4926   26.0834 O   0  0  0  0  0  0  0  0  0  0  0  0
   10.4104   50.7541   24.6510 C   0  0  0  0  0  0  0  0  0  0  0  0
   10.4404   49.3226   24.7331 O   0  0  0  0  0  0  0  0  0  0  0  0
    8.8123   40.1845   34.2130 O   0  0  0  0  0  0  0  0  0  0  0  0
   11.2401   40.7949   33.3666 O   0  0  0  0  0  0  0  0  0  0  0  0
   10.9124   40.6859   31.9952 C   0  0  0  0  0  0  0  0  0  0  0  0
   11.5175   39.3786   31.4405 C   0  0  0  0  0  0  0  0  0  0  0  0
   12.7490   39.0864   32.0753 O   0  0  0  0  0  0  0  0  0  0  0  0
   10.6060   38.1868   31.6656 C   0  0  0  0  0  0  0  0  0  0  0  0
   12.9355   37.6796   32.0292 C   0  0  0  0  0  0  0  0  0  0  0  0
    9.6399   38.0903   30.6471 O   0  0  0  0  0  0  0  0  0  0  0  0
   11.5765   37.0145   31.7044 C   0  0  0  0  0  0  0  0  0  0  0  0
   13.4858   37.2125   33.3244 N   0  0  0  0  0  0  0  0  0  0  0  0
   11.6101   36.3397   30.4673 O   0  0  0  0  0  0  0  0  0  0  0  0
   14.4805   36.3319   33.5729 C   0  0  0  0  0  0  0  0  0  0  0  0
   13.1143   37.6276   34.5694 C   0  0  0  0  0  0  0  0  0  0  0  0
   15.2076   35.6153   32.6741 N   0  0  0  0  0  0  0  0  0  0  0  0
   14.6760   36.2304   34.9184 C   0  0  0  0  0  0  0  0  0  0  0  0
   13.8219   37.0449   35.5786 N   0  0  0  0  0  0  0  0  0  0  0  0
   16.1641   34.7600   33.1548 C   0  0  0  0  0  0  0  0  0  0  0  0
   15.6528   35.3505   35.4132 C   0  0  0  0  0  0  0  0  0  0  0  0
   16.3795   34.6314   34.5043 N   0  0  0  0  0  0  0  0  0  0  0  0
   15.9002   35.1931   36.8091 N   0  0  0  0  0  0  0  0  0  0  0  0
    8.9995   45.4382   33.6718 H   0  0  0  0  0  0  0  0  0  0  0  0
   10.7765   46.9368   33.0151 H   0  0  0  0  0  0  0  0  0  0  0  0
   11.0501   46.2278   34.4976 H   0  0  0  0  0  0  0  0  0  0  0  0
   10.7402   44.9076   31.1825 H   0  0  0  0  0  0  0  0  0  0  0  0
    9.3632   43.8357   31.4706 H   0  0  0  0  0  0  0  0  0  0  0  0
    7.0114   44.7181   31.5889 H   0  0  0  0  0  0  0  0  0  0  0  0
   10.3469   47.1904   30.4075 H   0  0  0  0  0  0  0  0  0  0  0  0
    5.4601   46.3133   30.5145 H   0  0  0  0  0  0  0  0  0  0  0  0
    8.7892   48.7766   29.3472 H   0  0  0  0  0  0  0  0  0  0  0  0
    5.1850   49.4501   27.6875 H   0  0  0  0  0  0  0  0  0  0  0  0
    5.1453   46.4226   27.9823 H   0  0  0  0  0  0  0  0  0  0  0  0
    3.8172   47.6088   28.0557 H   0  0  0  0  0  0  0  0  0  0  0  0
    4.6213   47.2970   26.4770 H   0  0  0  0  0  0  0  0  0  0  0  0
    6.9222   50.7771   26.8813 H   0  0  0  0  0  0  0  0  0  0  0  0
    9.5490   46.7772   25.4788 H   0  0  0  0  0  0  0  0  0  0  0  0
   10.3398   51.0757   23.5908 H   0  0  0  0  0  0  0  0  0  0  0  0
   11.3123   51.1846   25.1345 H   0  0  0  0  0  0  0  0  0  0  0  0
    9.8214   40.7199   31.7633 H   0  0  0  0  0  0  0  0  0  0  0  0
   11.3802   41.5436   31.4660 H   0  0  0  0  0  0  0  0  0  0  0  0
   11.6999   39.5040   30.3482 H   0  0  0  0  0  0  0  0  0  0  0  0
   10.1085   38.2767   32.6603 H   0  0  0  0  0  0  0  0  0  0  0  0
   13.6680   37.4521   31.2229 H   0  0  0  0  0  0  0  0  0  0  0  0
    9.0016   37.3868   30.9349 H   0  0  0  0  0  0  0  0  0  0  0  0
   11.2666   36.3062   32.5083 H   0  0  0  0  0  0  0  0  0  0  0  0
   12.1389   35.5126   30.6150 H   0  0  0  0  0  0  0  0  0  0  0  0
   12.3300   38.3529   34.7449 H   0  0  0  0  0  0  0  0  0  0  0  0
   16.7560   34.1779   32.4621 H   0  0  0  0  0  0  0  0  0  0  0  0
   15.3534   35.7359   37.5140 H   0  0  0  0  0  0  0  0  0  0  0  0
   16.6347   34.5298   37.1416 H   0  0  0  0  0  0  0  0  0  0  0  0
  1  2  2  0
  1  3  1  0
  3  4  1  0
  4  5  1  0
  6  1  1  0
  7  6  1  0
  6  8  1  0
  8  9  1  0
  9 10  2  0
 11  9  1  0
 10 12  1  0
 13 11  2  0
 12 14  2  0
 14 13  1  0
 14 15  1  0
 15 16  1  0
 16 17  1  0
 16 18  1  0
 18 19  2  0
 20 18  1  0
 19 21  1  0
 22 20  2  0
 20 23  1  0
 21 24  1  0
 21 25  2  0
 25 22  1  0
 23 26  1  0
 23 27  2  0
 24 28  1  0
 25 29  1  0
 28 29  1  0
  4 30  2  0
  4 31  1  0
 32 31  1  0
 32 33  1  0
 33 34  1  0
 33 35  1  0
 34 36  1  0
 35 37  1  0
 35 38  1  0
 38 36  1  0
 36 39  1  0
 38 40  1  0
 41 39  1  0
 42 39  1  0
 43 41  2  0
 41 44  1  0
 45 42  2  0
 46 43  1  0
 44 47  2  0
 44 45  1  0
 48 46  2  0
 48 47  1  0
 47 49  1  0
  6 50  1  1
  7 51  1  0
  7 52  1  0
  8 53  1  0
  8 54  1  0
 10 55  1  0
 11 56  1  0
 12 57  1  0
 13 58  1  0
 16 59  1  6
 17 60  1  0
 17 61  1  0
 17 62  1  0
 19 63  1  0
 22 64  1  0
 28 65  1  0
 28 66  1  0
 32 67  1  0
 32 68  1  0
 33 69  1  0
 35 70  1  0
 36 71  1  0
 37 72  1  0
 38 73  1  0
 40 74  1  0
 42 75  1  0
 46 76  1  0
 49 77  1  0
 49 78  1  0
M  CHG  3   5  -1  23   1  26  -1
M  END
>  <EmbedRMS>  (371) 
0.0823333184397

$$$$

     RDKit          3D

 78 83  0  0  0  0  0  0  0  0999 V2000
   10.2832   43.7664   33.8257 C   0  0  0  0  0  0  0  0  0  0  0  0
   11.4101   43.5932   34.3751 O   0  0  0  0  0  0  0  0  0  0  0  0
    9.3637   42.7256   33.7348 O   0  0  0  0  0  0  0  0  0  0  0  0
    9.8906   41.2267   34.2933 P   0  0  0  0  0  0  0  0  0  0  0  0
   10.3743   41.4558   35.8827 O   0  0  0  0  0  0  0  0  0  0  0  0
    9.9542   45.0699   33.2038 C   0  0  1  0  0  0  0  0  0  0  0  0
   11.0268   46.0326   33.4760 N   0  0  0  0  0  0  0  0  0  0  0  0
    9.7463   44.8488   31.6879 C   0  0  0  0  0  0  0  0  0  0  0  0
    8.7920   45.8417   31.0850 C   0  0  0  0  0  0  0  0  0  0  0  0
    7.4045   45.6002   31.0977 C   0  0  0  0  0  0  0  0  0  0  0  0
    9.2825   46.9877   30.4392 C   0  0  0  0  0  0  0  0  0  0  0  0
    6.5258   46.5002   30.4801 C   0  0  0  0  0  0  0  0  0  0  0  0
    8.4019   47.8880   29.8276 C   0  0  0  0  0  0  0  0  0  0  0  0
    7.0191   47.6556   29.8585 C   0  0  0  0  0  0  0  0  0  0  0  0
    6.1263   48.5495   29.2586 O   0  0  0  0  0  0  0  0  0  0  0  0
    5.7147   49.8012   29.8258 C   0  0  2  0  0  0  0  0  0  0  0  0
    6.8725   50.8013   29.9254 C   0  0  0  0  0  0  0  0  0  0  0  0
    5.0031   49.6062   31.1619 C   0  0  0  0  0  0  0  0  0  0  0  0
    5.7419   49.1458   32.2828 C   0  0  0  0  0  0  0  0  0  0  0  0
    3.5892   49.8103   31.3020 C   0  0  0  0  0  0  0  0  0  0  0  0
    5.0633   48.8685   33.4615 C   0  0  0  0  0  0  0  0  0  0  0  0
    2.9506   49.4985   32.5236 C   0  0  0  0  0  0  0  0  0  0  0  0
    2.7984   50.3521   30.2355 N   0  0  0  0  0  0  0  0  0  0  0  0
    5.5748   48.3994   34.6562 O   0  0  0  0  0  0  0  0  0  0  0  0
    3.7261   49.0318   33.5754 C   0  0  0  0  0  0  0  0  0  0  0  0
    3.1113   51.5871   29.7162 O   0  0  0  0  0  0  0  0  0  0  0  0
    1.6865   49.8504   29.9709 O   0  0  0  0  0  0  0  0  0  0  0  0
    4.4859   48.2605   35.5790 C   0  0  0  0  0  0  0  0  0  0  0  0
    3.3239   48.6759   34.8483 O   0  0  0  0  0  0  0  0  0  0  0  0
    8.8123   40.1851   34.2127 O   0  0  0  0  0  0  0  0  0  0  0  0
   11.2406   40.7946   33.3670 O   0  0  0  0  0  0  0  0  0  0  0  0
   10.9134   40.6866   31.9954 C   0  0  0  0  0  0  0  0  0  0  0  0
   11.5166   39.3787   31.4404 C   0  0  0  0  0  0  0  0  0  0  0  0
   12.7486   39.0849   32.0735 O   0  0  0  0  0  0  0  0  0  0  0  0
   10.6039   38.1884   31.6669 C   0  0  0  0  0  0  0  0  0  0  0  0
   12.9329   37.6776   32.0284 C   0  0  0  0  0  0  0  0  0  0  0  0
    9.6373   38.0938   30.6485 O   0  0  0  0  0  0  0  0  0  0  0  0
   11.5737   37.0141   31.7055 C   0  0  0  0  0  0  0  0  0  0  0  0
   13.4853   37.2120   33.3238 N   0  0  0  0  0  0  0  0  0  0  0  0
   11.6210   36.3379   30.4683 O   0  0  0  0  0  0  0  0  0  0  0  0
   14.4804   36.3319   33.5726 C   0  0  0  0  0  0  0  0  0  0  0  0
   13.1141   37.6275   34.5689 C   0  0  0  0  0  0  0  0  0  0  0  0
   15.2075   35.6152   32.6740 N   0  0  0  0  0  0  0  0  0  0  0  0
   14.6761   36.2306   34.9181 C   0  0  0  0  0  0  0  0  0  0  0  0
   13.8218   37.0451   35.5783 N   0  0  0  0  0  0  0  0  0  0  0  0
   16.1642   34.7600   33.1548 C   0  0  0  0  0  0  0  0  0  0  0  0
   15.6528   35.3507   35.4131 C   0  0  0  0  0  0  0  0  0  0  0  0
   16.3795   34.6315   34.5043 N   0  0  0  0  0  0  0  0  0  0  0  0
   15.9001   35.1933   36.8090 N   0  0  0  0  0  0  0  0  0  0  0  0
    9.0115   45.4321   33.6716 H   0  0  0  0  0  0  0  0  0  0  0  0
   11.8900   45.7666   32.9473 H   0  0  0  0  0  0  0  0  0  0  0  0
   10.7251   46.9692   33.1218 H   0  0  0  0  0  0  0  0  0  0  0  0
    9.3413   43.8337   31.4762 H   0  0  0  0  0  0  0  0  0  0  0  0
   10.7227   44.8825   31.1560 H   0  0  0  0  0  0  0  0  0  0  0  0
    7.0075   44.7151   31.5793 H   0  0  0  0  0  0  0  0  0  0  0  0
   10.3473   47.1820   30.4016 H   0  0  0  0  0  0  0  0  0  0  0  0
    5.4604   46.3089   30.4982 H   0  0  0  0  0  0  0  0  0  0  0  0
    8.7981   48.7570   29.3196 H   0  0  0  0  0  0  0  0  0  0  0  0
    5.0162   50.2340   29.0864 H   0  0  0  0  0  0  0  0  0  0  0  0
    7.6413   50.4716   30.6527 H   0  0  0  0  0  0  0  0  0  0  0  0
    7.3520   50.9197   28.9307 H   0  0  0  0  0  0  0  0  0  0  0  0
    6.4864   51.7916   30.2482 H   0  0  0  0  0  0  0  0  0  0  0  0
    6.8100   48.9842   32.2389 H   0  0  0  0  0  0  0  0  0  0  0  0
    1.8851   49.6390   32.6532 H   0  0  0  0  0  0  0  0  0  0  0  0
    4.3822   47.2010   35.8939 H   0  0  0  0  0  0  0  0  0  0  0  0
    4.6415   48.9198   36.4586 H   0  0  0  0  0  0  0  0  0  0  0  0
    9.8225   40.7225   31.7631 H   0  0  0  0  0  0  0  0  0  0  0  0
   11.3827   41.5438   31.4668 H   0  0  0  0  0  0  0  0  0  0  0  0
   11.6978   39.5037   30.3478 H   0  0  0  0  0  0  0  0  0  0  0  0
   10.1084   38.2786   32.6627 H   0  0  0  0  0  0  0  0  0  0  0  0
   13.6638   37.4472   31.2214 H   0  0  0  0  0  0  0  0  0  0  0  0
    8.9763   37.4191   30.9532 H   0  0  0  0  0  0  0  0  0  0  0  0
   11.2821   36.3054   32.5172 H   0  0  0  0  0  0  0  0  0  0  0  0
   10.8658   35.6935   30.4652 H   0  0  0  0  0  0  0  0  0  0  0  0
   12.3293   38.3523   34.7445 H   0  0  0  0  0  0  0  0  0  0  0  0
   16.7561   34.1778   32.4621 H   0  0  0  0  0  0  0  0  0  0  0  0
   15.3533   35.7361   37.5138 H   0  0  0  0  0  0  0  0  0  0  0  0
   16.6345   34.5300   37.1416 H   0  0  0  0  0  0  0  0  0  0  0  0
  1  2  2  0
  1  3  1  0
  3  4  1  0
  4  5  1  0
  6  1  1  0
  7  6  1  0
  6  8  1  0
  8  9  1  0
  9 10  2  0
 11  9  1  0
 10 12  1  0
 13 11  2  0
 12 14  2  0
 14 13  1  0
 14 15  1  0
 15 16  1  0
 16 17  1  0
 16 18  1  0
 18 19  2  0
 20 18  1  0
 19 21  1  0
 22 20  2  0
 20 23  1  0
 21 24  1  0
 21 25  2  0
 25 22  1  0
 23 26  1  0
 23 27  2  0
 24 28  1  0
 25 29  1  0
 28 29  1  0
  4 30  2  0
  4 31  1  0
 32 31  1  0
 32 33  1  0
 33 34  1  0
 33 35  1  0
 34 36  1  0
 35 37  1  0
 35 38  1  0
 38 36  1  0
 36 39  1  0
 38 40  1  0
 41 39  1  0
 42 39  1  0
 43 41  2  0
 41 44  1  0
 45 42  2  0
 46 43  1  0
 44 47  2  0
 44 45  1  0
 48 46  2  0
 48 47  1  0
 47 49  1  0
  6 50  1  1
  7 51  1  0
  7 52  1  0
  8 53  1  0
  8 54  1  0
 10 55  1  0
 11 56  1  0
 12 57  1  0
 13 58  1  0
 16 59  1  6
 17 60  1  0
 17 61  1  0
 17 62  1  0
 19 63  1  0
 22 64  1  0
 28 65  1  0
 28 66  1  0
 32 67  1  0
 32 68  1  0
 33 69  1  0
 35 70  1  0
 36 71  1  0
 37 72  1  0
 38 73  1  0
 40 74  1  0
 42 75  1  0
 46 76  1  0
 49 77  1  0
 49 78  1  0
M  CHG  3   5  -1  23   1  26  -1
M  END
>  <EmbedRMS>  (372) 
0.0826507618754

$$$$

     RDKit          3D

 78 83  0  0  0  0  0  0  0  0999 V2000
   10.2805   43.7664   33.8249 C   0  0  0  0  0  0  0  0  0  0  0  0
   11.4111   43.5919   34.3667 O   0  0  0  0  0  0  0  0  0  0  0  0
    9.3622   42.7247   33.7342 O   0  0  0  0  0  0  0  0  0  0  0  0
    9.8904   41.2264   34.2936 P   0  0  0  0  0  0  0  0  0  0  0  0
   10.3731   41.4565   35.8831 O   0  0  0  0  0  0  0  0  0  0  0  0
    9.9459   45.0736   33.2112 C   0  0  1  0  0  0  0  0  0  0  0  0
   11.0265   46.0293   33.4709 N   0  0  0  0  0  0  0  0  0  0  0  0
    9.7540   44.8542   31.6949 C   0  0  0  0  0  0  0  0  0  0  0  0
    8.7957   45.8412   31.0848 C   0  0  0  0  0  0  0  0  0  0  0  0
    7.4090   45.5998   31.1009 C   0  0  0  0  0  0  0  0  0  0  0  0
    9.2824   46.9877   30.4392 C   0  0  0  0  0  0  0  0  0  0  0  0
    6.5262   46.4986   30.4859 C   0  0  0  0  0  0  0  0  0  0  0  0
    8.3996   47.8872   29.8307 C   0  0  0  0  0  0  0  0  0  0  0  0
    7.0182   47.6552   29.8476 C   0  0  0  0  0  0  0  0  0  0  0  0
    6.1790   48.5936   29.2250 O   0  0  0  0  0  0  0  0  0  0  0  0
    4.7495   48.5387   29.1989 C   0  0  2  0  0  0  0  0  0  0  0  0
    4.2352   49.6130   28.2436 C   0  0  0  0  0  0  0  0  0  0  0  0
    4.1675   48.7685   30.5847 C   0  0  0  0  0  0  0  0  0  0  0  0
    4.7859   49.7205   31.4332 C   0  0  0  0  0  0  0  0  0  0  0  0
    2.9590   48.1284   31.0174 C   0  0  0  0  0  0  0  0  0  0  0  0
    4.2063   49.9866   32.6667 C   0  0  0  0  0  0  0  0  0  0  0  0
    2.4064   48.4516   32.2762 C   0  0  0  0  0  0  0  0  0  0  0  0
    2.2690   47.1801   30.1924 N   0  0  0  0  0  0  0  0  0  0  0  0
    4.6352   50.8613   33.6464 O   0  0  0  0  0  0  0  0  0  0  0  0
    3.0667   49.3796   33.0702 C   0  0  0  0  0  0  0  0  0  0  0  0
    0.9024   47.2670   30.0621 O   0  0  0  0  0  0  0  0  0  0  0  0
    2.8408   46.1289   29.8389 O   0  0  0  0  0  0  0  0  0  0  0  0
    3.7048   50.7957   34.7359 C   0  0  0  0  0  0  0  0  0  0  0  0
    2.7188   49.8383   34.3261 O   0  0  0  0  0  0  0  0  0  0  0  0
    8.8129   40.1841   34.2124 O   0  0  0  0  0  0  0  0  0  0  0  0
   11.2419   40.7944   33.3695 O   0  0  0  0  0  0  0  0  0  0  0  0
   10.9185   40.6911   31.9969 C   0  0  0  0  0  0  0  0  0  0  0  0
   11.5172   39.3814   31.4407 C   0  0  0  0  0  0  0  0  0  0  0  0
   12.7492   39.0856   32.0729 O   0  0  0  0  0  0  0  0  0  0  0  0
   10.6023   38.1908   31.6665 C   0  0  0  0  0  0  0  0  0  0  0  0
   12.9319   37.6781   32.0281 C   0  0  0  0  0  0  0  0  0  0  0  0
    9.6392   38.0797   30.6452 O   0  0  0  0  0  0  0  0  0  0  0  0
   11.5715   37.0165   31.7056 C   0  0  0  0  0  0  0  0  0  0  0  0
   13.4847   37.2121   33.3235 N   0  0  0  0  0  0  0  0  0  0  0  0
   11.6187   36.3384   30.4695 O   0  0  0  0  0  0  0  0  0  0  0  0
   14.4801   36.3321   33.5724 C   0  0  0  0  0  0  0  0  0  0  0  0
   13.1137   37.6276   34.5688 C   0  0  0  0  0  0  0  0  0  0  0  0
   15.2073   35.6153   32.6738 N   0  0  0  0  0  0  0  0  0  0  0  0
   14.6759   36.2308   34.9179 C   0  0  0  0  0  0  0  0  0  0  0  0
   13.8216   37.0452   35.5781 N   0  0  0  0  0  0  0  0  0  0  0  0
   16.1640   34.7602   33.1546 C   0  0  0  0  0  0  0  0  0  0  0  0
   15.6526   35.3508   35.4129 C   0  0  0  0  0  0  0  0  0  0  0  0
   16.3794   34.6317   34.5041 N   0  0  0  0  0  0  0  0  0  0  0  0
   15.8999   35.1935   36.8088 N   0  0  0  0  0  0  0  0  0  0  0  0
    8.9994   45.4380   33.6721 H   0  0  0  0  0  0  0  0  0  0  0  0
   10.7762   46.9369   33.0160 H   0  0  0  0  0  0  0  0  0  0  0  0
   11.0500   46.2277   34.4983 H   0  0  0  0  0  0  0  0  0  0  0  0
   10.7412   44.9080   31.1837 H   0  0  0  0  0  0  0  0  0  0  0  0
    9.3646   43.8354   31.4710 H   0  0  0  0  0  0  0  0  0  0  0  0
    7.0148   44.7150   31.5854 H   0  0  0  0  0  0  0  0  0  0  0  0
   10.3463   47.1877   30.4049 H   0  0  0  0  0  0  0  0  0  0  0  0
    5.4688   46.2827   30.5159 H   0  0  0  0  0  0  0  0  0  0  0  0
    8.7914   48.7699   29.3412 H   0  0  0  0  0  0  0  0  0  0  0  0
    4.4487   47.5599   28.7785 H   0  0  0  0  0  0  0  0  0  0  0  0
    4.5469   50.6227   28.5872 H   0  0  0  0  0  0  0  0  0  0  0  0
    3.1262   49.5753   28.1840 H   0  0  0  0  0  0  0  0  0  0  0  0
    4.6484   49.4409   27.2271 H   0  0  0  0  0  0  0  0  0  0  0  0
    5.6836   50.2476   31.1363 H   0  0  0  0  0  0  0  0  0  0  0  0
    1.4944   47.9852   32.6261 H   0  0  0  0  0  0  0  0  0  0  0  0
    4.2167   50.4479   35.6576 H   0  0  0  0  0  0  0  0  0  0  0  0
    3.2323   51.7872   34.8976 H   0  0  0  0  0  0  0  0  0  0  0  0
   11.3967   41.5459   31.4725 H   0  0  0  0  0  0  0  0  0  0  0  0
    9.8298   40.7409   31.7611 H   0  0  0  0  0  0  0  0  0  0  0  0
   11.6975   39.5066   30.3481 H   0  0  0  0  0  0  0  0  0  0  0  0
   10.1076   38.2648   32.6645 H   0  0  0  0  0  0  0  0  0  0  0  0
   13.6621   37.4468   31.2209 H   0  0  0  0  0  0  0  0  0  0  0  0
    8.8974   38.6942   30.8832 H   0  0  0  0  0  0  0  0  0  0  0  0
   11.2806   36.3073   32.5170 H   0  0  0  0  0  0  0  0  0  0  0  0
   10.8492   35.7110   30.4586 H   0  0  0  0  0  0  0  0  0  0  0  0
   12.3290   38.3524   34.7444 H   0  0  0  0  0  0  0  0  0  0  0  0
   16.7559   34.1780   32.4619 H   0  0  0  0  0  0  0  0  0  0  0  0
   16.6344   34.5301   37.1414 H   0  0  0  0  0  0  0  0  0  0  0  0
   15.3531   35.7363   37.5137 H   0  0  0  0  0  0  0  0  0  0  0  0
  1  2  2  0
  1  3  1  0
  3  4  1  0
  4  5  1  0
  6  1  1  0
  7  6  1  0
  6  8  1  0
  8  9  1  0
  9 10  2  0
 11  9  1  0
 10 12  1  0
 13 11  2  0
 12 14  2  0
 14 13  1  0
 14 15  1  0
 15 16  1  0
 16 17  1  0
 16 18  1  0
 18 19  2  0
 20 18  1  0
 19 21  1  0
 22 20  2  0
 20 23  1  0
 21 24  1  0
 21 25  2  0
 25 22  1  0
 23 26  1  0
 23 27  2  0
 24 28  1  0
 25 29  1  0
 28 29  1  0
  4 30  2  0
  4 31  1  0
 32 31  1  0
 32 33  1  0
 33 34  1  0
 33 35  1  0
 34 36  1  0
 35 37  1  0
 35 38  1  0
 38 36  1  0
 36 39  1  0
 38 40  1  0
 41 39  1  0
 42 39  1  0
 43 41  2  0
 41 44  1  0
 45 42  2  0
 46 43  1  0
 44 47  2  0
 44 45  1  0
 48 46  2  0
 48 47  1  0
 47 49  1  0
  6 50  1  1
  7 51  1  0
  7 52  1  0
  8 53  1  0
  8 54  1  0
 10 55  1  0
 11 56  1  0
 12 57  1  0
 13 58  1  0
 16 59  1  6
 17 60  1  0
 17 61  1  0
 17 62  1  0
 19 63  1  0
 22 64  1  0
 28 65  1  0
 28 66  1  0
 32 67  1  0
 32 68  1  0
 33 69  1  0
 35 70  1  0
 36 71  1  0
 37 72  1  0
 38 73  1  0
 40 74  1  0
 42 75  1  0
 46 76  1  0
 49 77  1  0
 49 78  1  0
M  CHG  3   5  -1  23   1  26  -1
M  END
>  <EmbedRMS>  (373) 
0.0827633466474

$$$$

     RDKit          3D

 78 83  0  0  0  0  0  0  0  0999 V2000
   10.2804   43.7664   33.8250 C   0  0  0  0  0  0  0  0  0  0  0  0
   11.4111   43.5919   34.3667 O   0  0  0  0  0  0  0  0  0  0  0  0
    9.3619   42.7249   33.7347 O   0  0  0  0  0  0  0  0  0  0  0  0
    9.8900   41.2267   34.2944 P   0  0  0  0  0  0  0  0  0  0  0  0
   10.3728   41.4567   35.8838 O   0  0  0  0  0  0  0  0  0  0  0  0
    9.9460   45.0736   33.2111 C   0  0  1  0  0  0  0  0  0  0  0  0
   11.0267   46.0292   33.4708 N   0  0  0  0  0  0  0  0  0  0  0  0
    9.7541   44.8540   31.6947 C   0  0  0  0  0  0  0  0  0  0  0  0
    8.7959   45.8408   31.0843 C   0  0  0  0  0  0  0  0  0  0  0  0
    7.4092   45.6004   31.1014 C   0  0  0  0  0  0  0  0  0  0  0  0
    9.2824   46.9879   30.4401 C   0  0  0  0  0  0  0  0  0  0  0  0
    6.5256   46.4995   30.4875 C   0  0  0  0  0  0  0  0  0  0  0  0
    8.3996   47.8876   29.8324 C   0  0  0  0  0  0  0  0  0  0  0  0
    7.0181   47.6540   29.8438 C   0  0  0  0  0  0  0  0  0  0  0  0
    6.1856   48.5950   29.2151 O   0  0  0  0  0  0  0  0  0  0  0  0
    4.7821   48.4595   28.9868 C   0  0  2  0  0  0  0  0  0  0  0  0
    4.4960   47.4181   27.8960 C   0  0  0  0  0  0  0  0  0  0  0  0
    4.1909   49.8132   28.6253 C   0  0  0  0  0  0  0  0  0  0  0  0
    3.1836   50.3441   29.4698 C   0  0  0  0  0  0  0  0  0  0  0  0
    4.5748   50.5508   27.4523 C   0  0  0  0  0  0  0  0  0  0  0  0
    2.5906   51.5513   29.1244 C   0  0  0  0  0  0  0  0  0  0  0  0
    3.9241   51.7674   27.1455 C   0  0  0  0  0  0  0  0  0  0  0  0
    5.5982   50.0850   26.5620 N   0  0  0  0  0  0  0  0  0  0  0  0
    1.5970   52.2418   29.7915 O   0  0  0  0  0  0  0  0  0  0  0  0
    2.9429   52.2311   28.0101 C   0  0  0  0  0  0  0  0  0  0  0  0
    6.8783   49.8919   27.0240 O   0  0  0  0  0  0  0  0  0  0  0  0
    5.4012   50.1079   25.3296 O   0  0  0  0  0  0  0  0  0  0  0  0
    1.3092   53.4328   29.0462 C   0  0  0  0  0  0  0  0  0  0  0  0
    2.1910   53.3864   27.9162 O   0  0  0  0  0  0  0  0  0  0  0  0
    8.8127   40.1842   34.2128 O   0  0  0  0  0  0  0  0  0  0  0  0
   11.2414   40.7951   33.3705 O   0  0  0  0  0  0  0  0  0  0  0  0
   10.9178   40.6921   31.9983 C   0  0  0  0  0  0  0  0  0  0  0  0
   11.5175   39.3837   31.4423 C   0  0  0  0  0  0  0  0  0  0  0  0
   12.7507   39.0887   32.0753 O   0  0  0  0  0  0  0  0  0  0  0  0
   10.6027   38.1916   31.6659 C   0  0  0  0  0  0  0  0  0  0  0  0
   12.9384   37.6819   32.0278 C   0  0  0  0  0  0  0  0  0  0  0  0
    9.6371   38.0805   30.6470 O   0  0  0  0  0  0  0  0  0  0  0  0
   11.5780   37.0215   31.6935 C   0  0  0  0  0  0  0  0  0  0  0  0
   13.4844   37.2120   33.3242 N   0  0  0  0  0  0  0  0  0  0  0  0
   11.6095   36.3201   30.4679 O   0  0  0  0  0  0  0  0  0  0  0  0
   14.4797   36.3318   33.5730 C   0  0  0  0  0  0  0  0  0  0  0  0
   13.1135   37.6278   34.5691 C   0  0  0  0  0  0  0  0  0  0  0  0
   15.2073   35.6155   32.6742 N   0  0  0  0  0  0  0  0  0  0  0  0
   14.6754   36.2305   34.9184 C   0  0  0  0  0  0  0  0  0  0  0  0
   13.8213   37.0452   35.5785 N   0  0  0  0  0  0  0  0  0  0  0  0
   16.1640   34.7604   33.1549 C   0  0  0  0  0  0  0  0  0  0  0  0
   15.6525   35.3507   35.4132 C   0  0  0  0  0  0  0  0  0  0  0  0
   16.3794   34.6318   34.5044 N   0  0  0  0  0  0  0  0  0  0  0  0
   15.9000   35.1934   36.8091 N   0  0  0  0  0  0  0  0  0  0  0  0
    8.9995   45.4381   33.6719 H   0  0  0  0  0  0  0  0  0  0  0  0
   10.7764   46.9369   33.0158 H   0  0  0  0  0  0  0  0  0  0  0  0
   11.0501   46.2277   34.4982 H   0  0  0  0  0  0  0  0  0  0  0  0
   10.7413   44.9077   31.1835 H   0  0  0  0  0  0  0  0  0  0  0  0
    9.3647   43.8352   31.4710 H   0  0  0  0  0  0  0  0  0  0  0  0
    7.0151   44.7169   31.5887 H   0  0  0  0  0  0  0  0  0  0  0  0
   10.3462   47.1882   30.4064 H   0  0  0  0  0  0  0  0  0  0  0  0
    5.4682   46.2847   30.5309 H   0  0  0  0  0  0  0  0  0  0  0  0
    8.7921   48.7698   29.3426 H   0  0  0  0  0  0  0  0  0  0  0  0
    4.3024   48.1041   29.9244 H   0  0  0  0  0  0  0  0  0  0  0  0
    3.4153   47.4206   27.6381 H   0  0  0  0  0  0  0  0  0  0  0  0
    4.7593   46.4017   28.2529 H   0  0  0  0  0  0  0  0  0  0  0  0
    5.0880   47.6173   26.9808 H   0  0  0  0  0  0  0  0  0  0  0  0
    2.8596   49.8279   30.3647 H   0  0  0  0  0  0  0  0  0  0  0  0
    4.1890   52.3399   26.2658 H   0  0  0  0  0  0  0  0  0  0  0  0
    0.2519   53.4279   28.7077 H   0  0  0  0  0  0  0  0  0  0  0  0
    1.5220   54.3319   29.6617 H   0  0  0  0  0  0  0  0  0  0  0  0
   11.3949   41.5477   31.4741 H   0  0  0  0  0  0  0  0  0  0  0  0
    9.8290   40.7408   31.7625 H   0  0  0  0  0  0  0  0  0  0  0  0
   11.6982   39.5114   30.3500 H   0  0  0  0  0  0  0  0  0  0  0  0
   10.1117   38.2604   32.6660 H   0  0  0  0  0  0  0  0  0  0  0  0
   13.6767   37.4557   31.2267 H   0  0  0  0  0  0  0  0  0  0  0  0
    8.8960   38.6950   30.8872 H   0  0  0  0  0  0  0  0  0  0  0  0
   11.2792   36.3072   32.4923 H   0  0  0  0  0  0  0  0  0  0  0  0
   11.8828   36.9598   29.7588 H   0  0  0  0  0  0  0  0  0  0  0  0
   12.3300   38.3538   34.7446 H   0  0  0  0  0  0  0  0  0  0  0  0
   16.7562   34.1785   32.4621 H   0  0  0  0  0  0  0  0  0  0  0  0
   15.3531   35.7360   37.5140 H   0  0  0  0  0  0  0  0  0  0  0  0
   16.6347   34.5303   37.1416 H   0  0  0  0  0  0  0  0  0  0  0  0
  1  2  2  0
  1  3  1  0
  3  4  1  0
  4  5  1  0
  6  1  1  0
  7  6  1  0
  6  8  1  0
  8  9  1  0
  9 10  2  0
 11  9  1  0
 10 12  1  0
 13 11  2  0
 12 14  2  0
 14 13  1  0
 14 15  1  0
 15 16  1  0
 16 17  1  0
 16 18  1  0
 18 19  2  0
 20 18  1  0
 19 21  1  0
 22 20  2  0
 20 23  1  0
 21 24  1  0
 21 25  2  0
 25 22  1  0
 23 26  1  0
 23 27  2  0
 24 28  1  0
 25 29  1  0
 28 29  1  0
  4 30  2  0
  4 31  1  0
 32 31  1  0
 32 33  1  0
 33 34  1  0
 33 35  1  0
 34 36  1  0
 35 37  1  0
 35 38  1  0
 38 36  1  0
 36 39  1  0
 38 40  1  0
 41 39  1  0
 42 39  1  0
 43 41  2  0
 41 44  1  0
 45 42  2  0
 46 43  1  0
 44 47  2  0
 44 45  1  0
 48 46  2  0
 48 47  1  0
 47 49  1  0
  6 50  1  1
  7 51  1  0
  7 52  1  0
  8 53  1  0
  8 54  1  0
 10 55  1  0
 11 56  1  0
 12 57  1  0
 13 58  1  0
 16 59  1  1
 17 60  1  0
 17 61  1  0
 17 62  1  0
 19 63  1  0
 22 64  1  0
 28 65  1  0
 28 66  1  0
 32 67  1  0
 32 68  1  0
 33 69  1  0
 35 70  1  0
 36 71  1  0
 37 72  1  0
 38 73  1  0
 40 74  1  0
 42 75  1  0
 46 76  1  0
 49 77  1  0
 49 78  1  0
M  CHG  3   5  -1  23   1  26  -1
M  END
>  <EmbedRMS>  (374) 
0.0817869325939

$$$$

     RDKit          3D

 78 83  0  0  0  0  0  0  0  0999 V2000
   10.2807   43.7660   33.8247 C   0  0  0  0  0  0  0  0  0  0  0  0
   11.4116   43.5918   34.3661 O   0  0  0  0  0  0  0  0  0  0  0  0
    9.3623   42.7244   33.7346 O   0  0  0  0  0  0  0  0  0  0  0  0
    9.8903   41.2262   34.2940 P   0  0  0  0  0  0  0  0  0  0  0  0
   10.3732   41.4561   35.8836 O   0  0  0  0  0  0  0  0  0  0  0  0
    9.9457   45.0734   33.2114 C   0  0  1  0  0  0  0  0  0  0  0  0
   11.0264   46.0290   33.4707 N   0  0  0  0  0  0  0  0  0  0  0  0
    9.7526   44.8547   31.6953 C   0  0  0  0  0  0  0  0  0  0  0  0
    8.7951   45.8432   31.0868 C   0  0  0  0  0  0  0  0  0  0  0  0
    7.4065   45.6042   31.1070 C   0  0  0  0  0  0  0  0  0  0  0  0
    9.2833   46.9905   30.4408 C   0  0  0  0  0  0  0  0  0  0  0  0
    6.5250   46.5039   30.4912 C   0  0  0  0  0  0  0  0  0  0  0  0
    8.4006   47.8877   29.8287 C   0  0  0  0  0  0  0  0  0  0  0  0
    7.0213   47.6404   29.8377 C   0  0  0  0  0  0  0  0  0  0  0  0
    6.1477   48.5372   29.2188 O   0  0  0  0  0  0  0  0  0  0  0  0
    5.7244   48.4303   27.8545 C   0  0  2  0  0  0  0  0  0  0  0  0
    4.6780   47.3260   27.6718 C   0  0  0  0  0  0  0  0  0  0  0  0
    6.9123   48.3772   26.8928 C   0  0  0  0  0  0  0  0  0  0  0  0
    7.3732   49.6140   26.3744 C   0  0  0  0  0  0  0  0  0  0  0  0
    7.6379   47.1800   26.5619 C   0  0  0  0  0  0  0  0  0  0  0  0
    8.5007   49.6240   25.5640 C   0  0  0  0  0  0  0  0  0  0  0  0
    8.7829   47.2529   25.7401 C   0  0  0  0  0  0  0  0  0  0  0  0
    7.2400   45.8908   27.0329 N   0  0  0  0  0  0  0  0  0  0  0  0
    9.1127   50.7043   24.9570 O   0  0  0  0  0  0  0  0  0  0  0  0
    9.1765   48.4933   25.2612 C   0  0  0  0  0  0  0  0  0  0  0  0
    8.0718   45.2152   27.8931 O   0  0  0  0  0  0  0  0  0  0  0  0
    6.4129   45.2350   26.3662 O   0  0  0  0  0  0  0  0  0  0  0  0
   10.2424   50.2162   24.2206 C   0  0  0  0  0  0  0  0  0  0  0  0
   10.2492   48.7994   24.4461 O   0  0  0  0  0  0  0  0  0  0  0  0
    8.8125   40.1842   34.2126 O   0  0  0  0  0  0  0  0  0  0  0  0
   11.2416   40.7945   33.3693 O   0  0  0  0  0  0  0  0  0  0  0  0
   10.9182   40.6911   31.9967 C   0  0  0  0  0  0  0  0  0  0  0  0
   11.5178   39.3818   31.4403 C   0  0  0  0  0  0  0  0  0  0  0  0
   12.7499   39.0861   32.0725 O   0  0  0  0  0  0  0  0  0  0  0  0
   10.6027   38.1911   31.6662 C   0  0  0  0  0  0  0  0  0  0  0  0
   12.9323   37.6785   32.0276 C   0  0  0  0  0  0  0  0  0  0  0  0
    9.6396   38.0792   30.6453 O   0  0  0  0  0  0  0  0  0  0  0  0
   11.5718   37.0169   31.7052 C   0  0  0  0  0  0  0  0  0  0  0  0
   13.4848   37.2120   33.3231 N   0  0  0  0  0  0  0  0  0  0  0  0
   11.6189   36.3389   30.4689 O   0  0  0  0  0  0  0  0  0  0  0  0
   14.4798   36.3316   33.5722 C   0  0  0  0  0  0  0  0  0  0  0  0
   13.1135   37.6273   34.5682 C   0  0  0  0  0  0  0  0  0  0  0  0
   15.2073   35.6149   32.6738 N   0  0  0  0  0  0  0  0  0  0  0  0
   14.6758   36.2309   34.9177 C   0  0  0  0  0  0  0  0  0  0  0  0
   13.8216   37.0455   35.5778 N   0  0  0  0  0  0  0  0  0  0  0  0
   16.1642   34.7601   33.1548 C   0  0  0  0  0  0  0  0  0  0  0  0
   15.6523   35.3510   35.4129 C   0  0  0  0  0  0  0  0  0  0  0  0
   16.3791   34.6315   34.5043 N   0  0  0  0  0  0  0  0  0  0  0  0
   15.8987   35.1935   36.8088 N   0  0  0  0  0  0  0  0  0  0  0  0
    8.9997   45.4377   33.6734 H   0  0  0  0  0  0  0  0  0  0  0  0
   11.0497   46.2273   34.4981 H   0  0  0  0  0  0  0  0  0  0  0  0
   10.7756   46.9367   33.0164 H   0  0  0  0  0  0  0  0  0  0  0  0
   10.7397   44.9074   31.1833 H   0  0  0  0  0  0  0  0  0  0  0  0
    9.3602   43.8368   31.4723 H   0  0  0  0  0  0  0  0  0  0  0  0
    7.0103   44.7242   31.5981 H   0  0  0  0  0  0  0  0  0  0  0  0
   10.3470   47.1910   30.4065 H   0  0  0  0  0  0  0  0  0  0  0  0
    5.4595   46.3171   30.5246 H   0  0  0  0  0  0  0  0  0  0  0  0
    8.7888   48.7677   29.3330 H   0  0  0  0  0  0  0  0  0  0  0  0
    5.1679   49.3687   27.6358 H   0  0  0  0  0  0  0  0  0  0  0  0
    4.4664   47.1693   26.5932 H   0  0  0  0  0  0  0  0  0  0  0  0
    3.7326   47.6264   28.1694 H   0  0  0  0  0  0  0  0  0  0  0  0
    4.9980   46.3747   28.1348 H   0  0  0  0  0  0  0  0  0  0  0  0
    6.8778   50.5477   26.6087 H   0  0  0  0  0  0  0  0  0  0  0  0
    9.3427   46.3635   25.4793 H   0  0  0  0  0  0  0  0  0  0  0  0
   11.1787   50.6716   24.6067 H   0  0  0  0  0  0  0  0  0  0  0  0
   10.1167   50.4307   23.1381 H   0  0  0  0  0  0  0  0  0  0  0  0
   11.3948   41.5464   31.4721 H   0  0  0  0  0  0  0  0  0  0  0  0
    9.8295   40.7400   31.7611 H   0  0  0  0  0  0  0  0  0  0  0  0
   11.6986   39.5066   30.3478 H   0  0  0  0  0  0  0  0  0  0  0  0
   10.1074   38.2655   32.6640 H   0  0  0  0  0  0  0  0  0  0  0  0
   13.6624   37.4475   31.2200 H   0  0  0  0  0  0  0  0  0  0  0  0
    8.8991   38.6952   30.8828 H   0  0  0  0  0  0  0  0  0  0  0  0
   11.2805   36.3078   32.5168 H   0  0  0  0  0  0  0  0  0  0  0  0
   10.8498   35.7112   30.4576 H   0  0  0  0  0  0  0  0  0  0  0  0
   12.3289   38.3524   34.7433 H   0  0  0  0  0  0  0  0  0  0  0  0
   16.7567   34.1785   32.4621 H   0  0  0  0  0  0  0  0  0  0  0  0
   16.6334   34.5305   37.1414 H   0  0  0  0  0  0  0  0  0  0  0  0
   15.3515   35.7370   37.5129 H   0  0  0  0  0  0  0  0  0  0  0  0
  1  2  2  0
  1  3  1  0
  3  4  1  0
  4  5  1  0
  6  1  1  0
  7  6  1  0
  6  8  1  0
  8  9  1  0
  9 10  2  0
 11  9  1  0
 10 12  1  0
 13 11  2  0
 12 14  2  0
 14 13  1  0
 14 15  1  0
 15 16  1  0
 16 17  1  0
 16 18  1  0
 18 19  2  0
 20 18  1  0
 19 21  1  0
 22 20  2  0
 20 23  1  0
 21 24  1  0
 21 25  2  0
 25 22  1  0
 23 26  1  0
 23 27  2  0
 24 28  1  0
 25 29  1  0
 28 29  1  0
  4 30  2  0
  4 31  1  0
 32 31  1  0
 32 33  1  0
 33 34  1  0
 33 35  1  0
 34 36  1  0
 35 37  1  0
 35 38  1  0
 38 36  1  0
 36 39  1  0
 38 40  1  0
 41 39  1  0
 42 39  1  0
 43 41  2  0
 41 44  1  0
 45 42  2  0
 46 43  1  0
 44 47  2  0
 44 45  1  0
 48 46  2  0
 48 47  1  0
 47 49  1  0
  6 50  1  1
  7 51  1  0
  7 52  1  0
  8 53  1  0
  8 54  1  0
 10 55  1  0
 11 56  1  0
 12 57  1  0
 13 58  1  0
 16 59  1  6
 17 60  1  0
 17 61  1  0
 17 62  1  0
 19 63  1  0
 22 64  1  0
 28 65  1  0
 28 66  1  0
 32 67  1  0
 32 68  1  0
 33 69  1  0
 35 70  1  0
 36 71  1  0
 37 72  1  0
 38 73  1  0
 40 74  1  0
 42 75  1  0
 46 76  1  0
 49 77  1  0
 49 78  1  0
M  CHG  3   5  -1  23   1  26  -1
M  END
>  <EmbedRMS>  (375) 
0.0830071848803

$$$$

     RDKit          3D

 78 83  0  0  0  0  0  0  0  0999 V2000
   10.2833   43.7662   33.8253 C   0  0  0  0  0  0  0  0  0  0  0  0
   11.4101   43.5931   34.3750 O   0  0  0  0  0  0  0  0  0  0  0  0
    9.3636   42.7255   33.7348 O   0  0  0  0  0  0  0  0  0  0  0  0
    9.8902   41.2268   34.2941 P   0  0  0  0  0  0  0  0  0  0  0  0
   10.3736   41.4561   35.8835 O   0  0  0  0  0  0  0  0  0  0  0  0
    9.9545   45.0695   33.2030 C   0  0  1  0  0  0  0  0  0  0  0  0
   11.0272   46.0322   33.4753 N   0  0  0  0  0  0  0  0  0  0  0  0
    9.7465   44.8483   31.6870 C   0  0  0  0  0  0  0  0  0  0  0  0
    8.7921   45.8409   31.0835 C   0  0  0  0  0  0  0  0  0  0  0  0
    7.4038   45.6020   31.1004 C   0  0  0  0  0  0  0  0  0  0  0  0
    9.2825   46.9896   30.4423 C   0  0  0  0  0  0  0  0  0  0  0  0
    6.5242   46.5046   30.4866 C   0  0  0  0  0  0  0  0  0  0  0  0
    8.4013   47.8916   29.8347 C   0  0  0  0  0  0  0  0  0  0  0  0
    7.0210   47.6465   29.8437 C   0  0  0  0  0  0  0  0  0  0  0  0
    6.1427   48.5458   29.2318 O   0  0  0  0  0  0  0  0  0  0  0  0
    5.7969   48.4910   27.8439 C   0  0  2  0  0  0  0  0  0  0  0  0
    4.9143   47.2706   27.5436 C   0  0  0  0  0  0  0  0  0  0  0  0
    7.0365   48.5883   26.9594 C   0  0  0  0  0  0  0  0  0  0  0  0
    7.7545   47.4134   26.6131 C   0  0  0  0  0  0  0  0  0  0  0  0
    7.5069   49.8567   26.4764 C   0  0  0  0  0  0  0  0  0  0  0  0
    8.8534   47.5281   25.7729 C   0  0  0  0  0  0  0  0  0  0  0  0
    8.6191   49.9068   25.6061 C   0  0  0  0  0  0  0  0  0  0  0  0
    6.8971   51.0937   26.8795 N   0  0  0  0  0  0  0  0  0  0  0  0
    9.6839   46.5279   25.3051 O   0  0  0  0  0  0  0  0  0  0  0  0
    9.2627   48.7204   25.2845 C   0  0  0  0  0  0  0  0  0  0  0  0
    6.8462   52.1499   25.9993 O   0  0  0  0  0  0  0  0  0  0  0  0
    6.6233   51.2980   28.0801 O   0  0  0  0  0  0  0  0  0  0  0  0
   10.6776   47.1339   24.4673 C   0  0  0  0  0  0  0  0  0  0  0  0
   10.3718   48.5349   24.4817 O   0  0  0  0  0  0  0  0  0  0  0  0
    8.8121   40.1850   34.2131 O   0  0  0  0  0  0  0  0  0  0  0  0
   11.2404   40.7941   33.3690 O   0  0  0  0  0  0  0  0  0  0  0  0
   10.9143   40.6898   31.9972 C   0  0  0  0  0  0  0  0  0  0  0  0
   11.5261   39.3885   31.4376 C   0  0  0  0  0  0  0  0  0  0  0  0
   12.7504   39.0888   32.0815 O   0  0  0  0  0  0  0  0  0  0  0  0
   10.6115   38.1910   31.6460 C   0  0  0  0  0  0  0  0  0  0  0  0
   12.9357   37.6812   32.0303 C   0  0  0  0  0  0  0  0  0  0  0  0
    9.6146   38.0859   30.6533 O   0  0  0  0  0  0  0  0  0  0  0  0
   11.5769   37.0148   31.7012 C   0  0  0  0  0  0  0  0  0  0  0  0
   13.4849   37.2112   33.3247 N   0  0  0  0  0  0  0  0  0  0  0  0
   11.6193   36.3261   30.4724 O   0  0  0  0  0  0  0  0  0  0  0  0
   14.4802   36.3313   33.5730 C   0  0  0  0  0  0  0  0  0  0  0  0
   13.1141   37.6268   34.5698 C   0  0  0  0  0  0  0  0  0  0  0  0
   15.2075   35.6151   32.6741 N   0  0  0  0  0  0  0  0  0  0  0  0
   14.6761   36.2300   34.9184 C   0  0  0  0  0  0  0  0  0  0  0  0
   13.8220   37.0445   35.5789 N   0  0  0  0  0  0  0  0  0  0  0  0
   16.1642   34.7600   33.1547 C   0  0  0  0  0  0  0  0  0  0  0  0
   15.6529   35.3503   35.4131 C   0  0  0  0  0  0  0  0  0  0  0  0
   16.3797   34.6314   34.5042 N   0  0  0  0  0  0  0  0  0  0  0  0
   15.9004   35.1930   36.8090 N   0  0  0  0  0  0  0  0  0  0  0  0
    9.0120   45.4318   33.6709 H   0  0  0  0  0  0  0  0  0  0  0  0
   10.7258   46.9688   33.1210 H   0  0  0  0  0  0  0  0  0  0  0  0
   11.8905   45.7659   32.9465 H   0  0  0  0  0  0  0  0  0  0  0  0
    9.3414   43.8332   31.4755 H   0  0  0  0  0  0  0  0  0  0  0  0
   10.7228   44.8820   31.1549 H   0  0  0  0  0  0  0  0  0  0  0  0
    7.0067   44.7185   31.5847 H   0  0  0  0  0  0  0  0  0  0  0  0
   10.3466   47.1886   30.4121 H   0  0  0  0  0  0  0  0  0  0  0  0
    5.4588   46.3142   30.5068 H   0  0  0  0  0  0  0  0  0  0  0  0
    8.7914   48.7770   29.3491 H   0  0  0  0  0  0  0  0  0  0  0  0
    5.1432   49.3625   27.6319 H   0  0  0  0  0  0  0  0  0  0  0  0
    3.9580   47.3584   28.1017 H   0  0  0  0  0  0  0  0  0  0  0  0
    4.6836   47.2226   26.4580 H   0  0  0  0  0  0  0  0  0  0  0  0
    5.4005   46.3241   27.8546 H   0  0  0  0  0  0  0  0  0  0  0  0
    7.4769   46.4375   26.9843 H   0  0  0  0  0  0  0  0  0  0  0  0
    8.9925   50.8471   25.2215 H   0  0  0  0  0  0  0  0  0  0  0  0
   10.6030   46.7360   23.4336 H   0  0  0  0  0  0  0  0  0  0  0  0
   11.6910   46.9585   24.8852 H   0  0  0  0  0  0  0  0  0  0  0  0
   11.3779   41.5526   31.4726 H   0  0  0  0  0  0  0  0  0  0  0  0
    9.8233   40.7191   31.7646 H   0  0  0  0  0  0  0  0  0  0  0  0
   11.7283   39.5312   30.3515 H   0  0  0  0  0  0  0  0  0  0  0  0
   10.1127   38.2734   32.6376 H   0  0  0  0  0  0  0  0  0  0  0  0
   13.6692   37.4566   31.2242 H   0  0  0  0  0  0  0  0  0  0  0  0
   10.0533   38.1119   29.7635 H   0  0  0  0  0  0  0  0  0  0  0  0
   11.2607   36.3148   32.5102 H   0  0  0  0  0  0  0  0  0  0  0  0
   12.1496   35.5023   30.6324 H   0  0  0  0  0  0  0  0  0  0  0  0
   12.3301   38.3524   34.7455 H   0  0  0  0  0  0  0  0  0  0  0  0
   16.7563   34.1781   32.4619 H   0  0  0  0  0  0  0  0  0  0  0  0
   15.3536   35.7357   37.5139 H   0  0  0  0  0  0  0  0  0  0  0  0
   16.6351   34.5298   37.1415 H   0  0  0  0  0  0  0  0  0  0  0  0
  1  2  2  0
  1  3  1  0
  3  4  1  0
  4  5  1  0
  6  1  1  0
  7  6  1  0
  6  8  1  0
  8  9  1  0
  9 10  2  0
 11  9  1  0
 10 12  1  0
 13 11  2  0
 12 14  2  0
 14 13  1  0
 14 15  1  0
 15 16  1  0
 16 17  1  0
 16 18  1  0
 18 19  2  0
 20 18  1  0
 19 21  1  0
 22 20  2  0
 20 23  1  0
 21 24  1  0
 21 25  2  0
 25 22  1  0
 23 26  1  0
 23 27  2  0
 24 28  1  0
 25 29  1  0
 28 29  1  0
  4 30  2  0
  4 31  1  0
 32 31  1  0
 32 33  1  0
 33 34  1  0
 33 35  1  0
 34 36  1  0
 35 37  1  0
 35 38  1  0
 38 36  1  0
 36 39  1  0
 38 40  1  0
 41 39  1  0
 42 39  1  0
 43 41  2  0
 41 44  1  0
 45 42  2  0
 46 43  1  0
 44 47  2  0
 44 45  1  0
 48 46  2  0
 48 47  1  0
 47 49  1  0
  6 50  1  1
  7 51  1  0
  7 52  1  0
  8 53  1  0
  8 54  1  0
 10 55  1  0
 11 56  1  0
 12 57  1  0
 13 58  1  0
 16 59  1  6
 17 60  1  0
 17 61  1  0
 17 62  1  0
 19 63  1  0
 22 64  1  0
 28 65  1  0
 28 66  1  0
 32 67  1  0
 32 68  1  0
 33 69  1  0
 35 70  1  0
 36 71  1  0
 37 72  1  0
 38 73  1  0
 40 74  1  0
 42 75  1  0
 46 76  1  0
 49 77  1  0
 49 78  1  0
M  CHG  3   5  -1  23   1  26  -1
M  END
>  <EmbedRMS>  (376) 
0.0817426842875

$$$$

     RDKit          3D

 78 83  0  0  0  0  0  0  0  0999 V2000
   10.2834   43.7662   33.8257 C   0  0  0  0  0  0  0  0  0  0  0  0
   11.4102   43.5931   34.3753 O   0  0  0  0  0  0  0  0  0  0  0  0
    9.3638   42.7255   33.7349 O   0  0  0  0  0  0  0  0  0  0  0  0
    9.8907   41.2266   34.2934 P   0  0  0  0  0  0  0  0  0  0  0  0
   10.3743   41.4557   35.8828 O   0  0  0  0  0  0  0  0  0  0  0  0
    9.9546   45.0695   33.2036 C   0  0  1  0  0  0  0  0  0  0  0  0
   11.0272   46.0323   33.4756 N   0  0  0  0  0  0  0  0  0  0  0  0
    9.7467   44.8478   31.6877 C   0  0  0  0  0  0  0  0  0  0  0  0
    8.7924   45.8402   31.0842 C   0  0  0  0  0  0  0  0  0  0  0  0
    7.4062   45.6013   31.0987 C   0  0  0  0  0  0  0  0  0  0  0  0
    9.2817   46.9869   30.4425 C   0  0  0  0  0  0  0  0  0  0  0  0
    6.5280   46.5035   30.4840 C   0  0  0  0  0  0  0  0  0  0  0  0
    8.4031   47.8894   29.8320 C   0  0  0  0  0  0  0  0  0  0  0  0
    7.0128   47.6547   29.8471 C   0  0  0  0  0  0  0  0  0  0  0  0
    6.0718   48.5231   29.2634 O   0  0  0  0  0  0  0  0  0  0  0  0
    6.3270   49.7402   28.5492 C   0  0  2  0  0  0  0  0  0  0  0  0
    6.9362   49.4255   27.1736 C   0  0  0  0  0  0  0  0  0  0  0  0
    7.0780   50.7551   29.4131 C   0  0  0  0  0  0  0  0  0  0  0  0
    8.2315   51.4229   28.9177 C   0  0  0  0  0  0  0  0  0  0  0  0
    6.6439   51.0314   30.7557 C   0  0  0  0  0  0  0  0  0  0  0  0
    8.9189   52.2836   29.7626 C   0  0  0  0  0  0  0  0  0  0  0  0
    7.3959   51.9077   31.5715 C   0  0  0  0  0  0  0  0  0  0  0  0
    5.4596   50.4293   31.3056 N   0  0  0  0  0  0  0  0  0  0  0  0
   10.0599   53.0163   29.4969 O   0  0  0  0  0  0  0  0  0  0  0  0
    8.5221   52.5119   31.0339 C   0  0  0  0  0  0  0  0  0  0  0  0
    4.2925   50.3948   30.5789 O   0  0  0  0  0  0  0  0  0  0  0  0
    5.4271   50.1036   32.5104 O   0  0  0  0  0  0  0  0  0  0  0  0
   10.3993   53.7516   30.6803 C   0  0  0  0  0  0  0  0  0  0  0  0
    9.3909   53.4006   31.6375 O   0  0  0  0  0  0  0  0  0  0  0  0
    8.8123   40.1851   34.2127 O   0  0  0  0  0  0  0  0  0  0  0  0
   11.2407   40.7945   33.3670 O   0  0  0  0  0  0  0  0  0  0  0  0
   10.9134   40.6866   31.9954 C   0  0  0  0  0  0  0  0  0  0  0  0
   11.5167   39.3787   31.4404 C   0  0  0  0  0  0  0  0  0  0  0  0
   12.7486   39.0849   32.0735 O   0  0  0  0  0  0  0  0  0  0  0  0
   10.6039   38.1884   31.6669 C   0  0  0  0  0  0  0  0  0  0  0  0
   12.9329   37.6776   32.0284 C   0  0  0  0  0  0  0  0  0  0  0  0
    9.6374   38.0938   30.6484 O   0  0  0  0  0  0  0  0  0  0  0  0
   11.5737   37.0141   31.7055 C   0  0  0  0  0  0  0  0  0  0  0  0
   13.4853   37.2120   33.3238 N   0  0  0  0  0  0  0  0  0  0  0  0
   11.6210   36.3379   30.4683 O   0  0  0  0  0  0  0  0  0  0  0  0
   14.4804   36.3319   33.5726 C   0  0  0  0  0  0  0  0  0  0  0  0
   13.1141   37.6275   34.5689 C   0  0  0  0  0  0  0  0  0  0  0  0
   15.2076   35.6152   32.6740 N   0  0  0  0  0  0  0  0  0  0  0  0
   14.6761   36.2306   34.9181 C   0  0  0  0  0  0  0  0  0  0  0  0
   13.8218   37.0451   35.5783 N   0  0  0  0  0  0  0  0  0  0  0  0
   16.1642   34.7600   33.1548 C   0  0  0  0  0  0  0  0  0  0  0  0
   15.6527   35.3507   35.4131 C   0  0  0  0  0  0  0  0  0  0  0  0
   16.3795   34.6315   34.5043 N   0  0  0  0  0  0  0  0  0  0  0  0
   15.9001   35.1933   36.8090 N   0  0  0  0  0  0  0  0  0  0  0  0
    9.0119   45.4318   33.6713 H   0  0  0  0  0  0  0  0  0  0  0  0
   11.8904   45.7661   32.9469 H   0  0  0  0  0  0  0  0  0  0  0  0
   10.7256   46.9689   33.1213 H   0  0  0  0  0  0  0  0  0  0  0  0
   10.7231   44.8812   31.1558 H   0  0  0  0  0  0  0  0  0  0  0  0
    9.3417   43.8326   31.4764 H   0  0  0  0  0  0  0  0  0  0  0  0
    7.0086   44.7169   31.5812 H   0  0  0  0  0  0  0  0  0  0  0  0
   10.3463   47.1845   30.4130 H   0  0  0  0  0  0  0  0  0  0  0  0
    5.4633   46.3080   30.5054 H   0  0  0  0  0  0  0  0  0  0  0  0
    8.8253   48.7595   29.3580 H   0  0  0  0  0  0  0  0  0  0  0  0
    5.3389   50.1941   28.3257 H   0  0  0  0  0  0  0  0  0  0  0  0
    7.9663   49.0262   27.2582 H   0  0  0  0  0  0  0  0  0  0  0  0
    6.9461   50.3371   26.5390 H   0  0  0  0  0  0  0  0  0  0  0  0
    6.3131   48.6635   26.6592 H   0  0  0  0  0  0  0  0  0  0  0  0
    8.6081   51.2737   27.9165 H   0  0  0  0  0  0  0  0  0  0  0  0
    7.0978   52.1261   32.5890 H   0  0  0  0  0  0  0  0  0  0  0  0
   10.3708   54.8425   30.4761 H   0  0  0  0  0  0  0  0  0  0  0  0
   11.4007   53.4453   31.0488 H   0  0  0  0  0  0  0  0  0  0  0  0
   11.3827   41.5438   31.4669 H   0  0  0  0  0  0  0  0  0  0  0  0
    9.8225   40.7225   31.7631 H   0  0  0  0  0  0  0  0  0  0  0  0
   11.6978   39.5037   30.3478 H   0  0  0  0  0  0  0  0  0  0  0  0
   10.1084   38.2787   32.6627 H   0  0  0  0  0  0  0  0  0  0  0  0
   13.6638   37.4472   31.2214 H   0  0  0  0  0  0  0  0  0  0  0  0
    8.9763   37.4191   30.9532 H   0  0  0  0  0  0  0  0  0  0  0  0
   11.2821   36.3054   32.5172 H   0  0  0  0  0  0  0  0  0  0  0  0
   10.8658   35.6935   30.4652 H   0  0  0  0  0  0  0  0  0  0  0  0
   12.3293   38.3523   34.7444 H   0  0  0  0  0  0  0  0  0  0  0  0
   16.7561   34.1778   32.4621 H   0  0  0  0  0  0  0  0  0  0  0  0
   15.3533   35.7361   37.5138 H   0  0  0  0  0  0  0  0  0  0  0  0
   16.6345   34.5300   37.1416 H   0  0  0  0  0  0  0  0  0  0  0  0
  1  2  2  0
  1  3  1  0
  3  4  1  0
  4  5  1  0
  6  1  1  0
  7  6  1  0
  6  8  1  0
  8  9  1  0
  9 10  2  0
 11  9  1  0
 10 12  1  0
 13 11  2  0
 12 14  2  0
 14 13  1  0
 14 15  1  0
 15 16  1  0
 16 17  1  0
 16 18  1  0
 18 19  2  0
 20 18  1  0
 19 21  1  0
 22 20  2  0
 20 23  1  0
 21 24  1  0
 21 25  2  0
 25 22  1  0
 23 26  1  0
 23 27  2  0
 24 28  1  0
 25 29  1  0
 28 29  1  0
  4 30  2  0
  4 31  1  0
 32 31  1  0
 32 33  1  0
 33 34  1  0
 33 35  1  0
 34 36  1  0
 35 37  1  0
 35 38  1  0
 38 36  1  0
 36 39  1  0
 38 40  1  0
 41 39  1  0
 42 39  1  0
 43 41  2  0
 41 44  1  0
 45 42  2  0
 46 43  1  0
 44 47  2  0
 44 45  1  0
 48 46  2  0
 48 47  1  0
 47 49  1  0
  6 50  1  1
  7 51  1  0
  7 52  1  0
  8 53  1  0
  8 54  1  0
 10 55  1  0
 11 56  1  0
 12 57  1  0
 13 58  1  0
 16 59  1  6
 17 60  1  0
 17 61  1  0
 17 62  1  0
 19 63  1  0
 22 64  1  0
 28 65  1  0
 28 66  1  0
 32 67  1  0
 32 68  1  0
 33 69  1  0
 35 70  1  0
 36 71  1  0
 37 72  1  0
 38 73  1  0
 40 74  1  0
 42 75  1  0
 46 76  1  0
 49 77  1  0
 49 78  1  0
M  CHG  3   5  -1  23   1  26  -1
M  END
>  <EmbedRMS>  (377) 
0.0825573888232

$$$$

     RDKit          3D

 78 83  0  0  0  0  0  0  0  0999 V2000
   10.2836   43.7661   33.8255 C   0  0  0  0  0  0  0  0  0  0  0  0
   11.4103   43.5930   34.3753 O   0  0  0  0  0  0  0  0  0  0  0  0
    9.3640   42.7252   33.7347 O   0  0  0  0  0  0  0  0  0  0  0  0
    9.8908   41.2264   34.2939 P   0  0  0  0  0  0  0  0  0  0  0  0
   10.3732   41.4559   35.8835 O   0  0  0  0  0  0  0  0  0  0  0  0
    9.9547   45.0694   33.2034 C   0  0  1  0  0  0  0  0  0  0  0  0
   11.0273   46.0321   33.4755 N   0  0  0  0  0  0  0  0  0  0  0  0
    9.7465   44.8480   31.6875 C   0  0  0  0  0  0  0  0  0  0  0  0
    8.7923   45.8408   31.0843 C   0  0  0  0  0  0  0  0  0  0  0  0
    7.4055   45.6017   31.0993 C   0  0  0  0  0  0  0  0  0  0  0  0
    9.2823   46.9879   30.4426 C   0  0  0  0  0  0  0  0  0  0  0  0
    6.5267   46.5034   30.4844 C   0  0  0  0  0  0  0  0  0  0  0  0
    8.4033   47.8904   29.8324 C   0  0  0  0  0  0  0  0  0  0  0  0
    7.0141   47.6520   29.8462 C   0  0  0  0  0  0  0  0  0  0  0  0
    6.0889   48.5167   29.2381 O   0  0  0  0  0  0  0  0  0  0  0  0
    6.4213   49.6874   28.4885 C   0  0  2  0  0  0  0  0  0  0  0  0
    5.1590   50.5042   28.2143 C   0  0  0  0  0  0  0  0  0  0  0  0
    7.1371   49.3558   27.1869 C   0  0  0  0  0  0  0  0  0  0  0  0
    8.1092   50.2791   26.7311 C   0  0  0  0  0  0  0  0  0  0  0  0
    6.9130   48.1486   26.4362 C   0  0  0  0  0  0  0  0  0  0  0  0
    8.8347   49.9738   25.5877 C   0  0  0  0  0  0  0  0  0  0  0  0
    7.6956   47.8865   25.2891 C   0  0  0  0  0  0  0  0  0  0  0  0
    5.9247   47.1791   26.8173 N   0  0  0  0  0  0  0  0  0  0  0  0
    9.8265   50.7161   24.9761 O   0  0  0  0  0  0  0  0  0  0  0  0
    8.6397   48.8264   24.8997 C   0  0  0  0  0  0  0  0  0  0  0  0
    6.1963   45.8377   26.6764 O   0  0  0  0  0  0  0  0  0  0  0  0
    4.7536   47.5325   27.0611 O   0  0  0  0  0  0  0  0  0  0  0  0
   10.2821   49.9855   23.8292 C   0  0  0  0  0  0  0  0  0  0  0  0
    9.4977   48.7850   23.8176 O   0  0  0  0  0  0  0  0  0  0  0  0
    8.8127   40.1847   34.2122 O   0  0  0  0  0  0  0  0  0  0  0  0
   11.2421   40.7941   33.3697 O   0  0  0  0  0  0  0  0  0  0  0  0
   10.9187   40.6911   31.9971 C   0  0  0  0  0  0  0  0  0  0  0  0
   11.5172   39.3815   31.4407 C   0  0  0  0  0  0  0  0  0  0  0  0
   12.7493   39.0855   32.0728 O   0  0  0  0  0  0  0  0  0  0  0  0
   10.6023   38.1908   31.6665 C   0  0  0  0  0  0  0  0  0  0  0  0
   12.9319   37.6781   32.0281 C   0  0  0  0  0  0  0  0  0  0  0  0
    9.6392   38.0798   30.6452 O   0  0  0  0  0  0  0  0  0  0  0  0
   11.5715   37.0165   31.7056 C   0  0  0  0  0  0  0  0  0  0  0  0
   13.4846   37.2121   33.3235 N   0  0  0  0  0  0  0  0  0  0  0  0
   11.6187   36.3384   30.4695 O   0  0  0  0  0  0  0  0  0  0  0  0
   14.4801   36.3321   33.5724 C   0  0  0  0  0  0  0  0  0  0  0  0
   13.1137   37.6275   34.5688 C   0  0  0  0  0  0  0  0  0  0  0  0
   15.2073   35.6153   32.6738 N   0  0  0  0  0  0  0  0  0  0  0  0
   14.6759   36.2308   34.9179 C   0  0  0  0  0  0  0  0  0  0  0  0
   13.8216   37.0452   35.5781 N   0  0  0  0  0  0  0  0  0  0  0  0
   16.1640   34.7602   33.1546 C   0  0  0  0  0  0  0  0  0  0  0  0
   15.6526   35.3508   35.4129 C   0  0  0  0  0  0  0  0  0  0  0  0
   16.3794   34.6317   34.5041 N   0  0  0  0  0  0  0  0  0  0  0  0
   15.8999   35.1935   36.8088 N   0  0  0  0  0  0  0  0  0  0  0  0
    9.0121   45.4316   33.6713 H   0  0  0  0  0  0  0  0  0  0  0  0
   10.7258   46.9687   33.1212 H   0  0  0  0  0  0  0  0  0  0  0  0
   11.8905   45.7659   32.9468 H   0  0  0  0  0  0  0  0  0  0  0  0
   10.7229   44.8814   31.1555 H   0  0  0  0  0  0  0  0  0  0  0  0
    9.3413   43.8329   31.4761 H   0  0  0  0  0  0  0  0  0  0  0  0
    7.0083   44.7167   31.5809 H   0  0  0  0  0  0  0  0  0  0  0  0
   10.3469   47.1850   30.4120 H   0  0  0  0  0  0  0  0  0  0  0  0
    5.4623   46.3058   30.4995 H   0  0  0  0  0  0  0  0  0  0  0  0
    8.8172   48.7648   29.3509 H   0  0  0  0  0  0  0  0  0  0  0  0
    7.0747   50.3254   29.1252 H   0  0  0  0  0  0  0  0  0  0  0  0
    4.6430   50.7290   29.1718 H   0  0  0  0  0  0  0  0  0  0  0  0
    5.4267   51.4664   27.7274 H   0  0  0  0  0  0  0  0  0  0  0  0
    4.4569   49.9577   27.5537 H   0  0  0  0  0  0  0  0  0  0  0  0
    8.3050   51.2022   27.2622 H   0  0  0  0  0  0  0  0  0  0  0  0
    7.5574   46.9841   24.7075 H   0  0  0  0  0  0  0  0  0  0  0  0
   10.1001   50.5711   22.9037 H   0  0  0  0  0  0  0  0  0  0  0  0
   11.3593   49.7385   23.9342 H   0  0  0  0  0  0  0  0  0  0  0  0
   11.3969   41.5460   31.4729 H   0  0  0  0  0  0  0  0  0  0  0  0
    9.8300   40.7410   31.7613 H   0  0  0  0  0  0  0  0  0  0  0  0
   11.6975   39.5067   30.3481 H   0  0  0  0  0  0  0  0  0  0  0  0
   10.1077   38.2648   32.6646 H   0  0  0  0  0  0  0  0  0  0  0  0
   13.6621   37.4467   31.2209 H   0  0  0  0  0  0  0  0  0  0  0  0
    8.8975   38.6944   30.8831 H   0  0  0  0  0  0  0  0  0  0  0  0
   11.2806   36.3073   32.5170 H   0  0  0  0  0  0  0  0  0  0  0  0
   10.8492   35.7110   30.4586 H   0  0  0  0  0  0  0  0  0  0  0  0
   12.3290   38.3523   34.7444 H   0  0  0  0  0  0  0  0  0  0  0  0
   16.7559   34.1780   32.4619 H   0  0  0  0  0  0  0  0  0  0  0  0
   16.6344   34.5301   37.1414 H   0  0  0  0  0  0  0  0  0  0  0  0
   15.3532   35.7362   37.5137 H   0  0  0  0  0  0  0  0  0  0  0  0
  1  2  2  0
  1  3  1  0
  3  4  1  0
  4  5  1  0
  6  1  1  0
  7  6  1  0
  6  8  1  0
  8  9  1  0
  9 10  2  0
 11  9  1  0
 10 12  1  0
 13 11  2  0
 12 14  2  0
 14 13  1  0
 14 15  1  0
 15 16  1  0
 16 17  1  0
 16 18  1  0
 18 19  2  0
 20 18  1  0
 19 21  1  0
 22 20  2  0
 20 23  1  0
 21 24  1  0
 21 25  2  0
 25 22  1  0
 23 26  1  0
 23 27  2  0
 24 28  1  0
 25 29  1  0
 28 29  1  0
  4 30  2  0
  4 31  1  0
 32 31  1  0
 32 33  1  0
 33 34  1  0
 33 35  1  0
 34 36  1  0
 35 37  1  0
 35 38  1  0
 38 36  1  0
 36 39  1  0
 38 40  1  0
 41 39  1  0
 42 39  1  0
 43 41  2  0
 41 44  1  0
 45 42  2  0
 46 43  1  0
 44 47  2  0
 44 45  1  0
 48 46  2  0
 48 47  1  0
 47 49  1  0
  6 50  1  1
  7 51  1  0
  7 52  1  0
  8 53  1  0
  8 54  1  0
 10 55  1  0
 11 56  1  0
 12 57  1  0
 13 58  1  0
 16 59  1  1
 17 60  1  0
 17 61  1  0
 17 62  1  0
 19 63  1  0
 22 64  1  0
 28 65  1  0
 28 66  1  0
 32 67  1  0
 32 68  1  0
 33 69  1  0
 35 70  1  0
 36 71  1  0
 37 72  1  0
 38 73  1  0
 40 74  1  0
 42 75  1  0
 46 76  1  0
 49 77  1  0
 49 78  1  0
M  CHG  3   5  -1  23   1  26  -1
M  END
>  <EmbedRMS>  (378) 
0.082957254561

$$$$

     RDKit          3D

 78 83  0  0  0  0  0  0  0  0999 V2000
   10.2838   43.7627   33.8276 C   0  0  0  0  0  0  0  0  0  0  0  0
   11.4103   43.5864   34.3767 O   0  0  0  0  0  0  0  0  0  0  0  0
    9.3631   42.7236   33.7355 O   0  0  0  0  0  0  0  0  0  0  0  0
    9.8895   41.2250   34.2948 P   0  0  0  0  0  0  0  0  0  0  0  0
   10.3720   41.4547   35.8844 O   0  0  0  0  0  0  0  0  0  0  0  0
    9.9548   45.0700   33.2064 C   0  0  1  0  0  0  0  0  0  0  0  0
   11.0197   46.0482   33.4572 N   0  0  0  0  0  0  0  0  0  0  0  0
    9.7506   44.8511   31.6923 C   0  0  0  0  0  0  0  0  0  0  0  0
    8.7944   45.8418   31.0869 C   0  0  0  0  0  0  0  0  0  0  0  0
    7.4077   45.6003   31.1002 C   0  0  0  0  0  0  0  0  0  0  0  0
    9.2827   46.9890   30.4442 C   0  0  0  0  0  0  0  0  0  0  0  0
    6.5260   46.4995   30.4847 C   0  0  0  0  0  0  0  0  0  0  0  0
    8.4009   47.8880   29.8328 C   0  0  0  0  0  0  0  0  0  0  0  0
    7.0192   47.6558   29.8470 C   0  0  0  0  0  0  0  0  0  0  0  0
    6.1813   48.5942   29.2225 O   0  0  0  0  0  0  0  0  0  0  0  0
    4.7521   48.5366   29.1880 C   0  0  2  0  0  0  0  0  0  0  0  0
    4.2412   49.6119   28.2319 C   0  0  0  0  0  0  0  0  0  0  0  0
    4.1602   48.7609   30.5699 C   0  0  0  0  0  0  0  0  0  0  0  0
    4.7779   49.6991   31.4341 C   0  0  0  0  0  0  0  0  0  0  0  0
    2.9422   48.1279   30.9822 C   0  0  0  0  0  0  0  0  0  0  0  0
    4.1884   49.9563   32.6650 C   0  0  0  0  0  0  0  0  0  0  0  0
    2.3803   48.4398   32.2403 C   0  0  0  0  0  0  0  0  0  0  0  0
    2.2582   47.1939   30.1364 N   0  0  0  0  0  0  0  0  0  0  0  0
    4.6147   50.8166   33.6584 O   0  0  0  0  0  0  0  0  0  0  0  0
    3.0403   49.3536   33.0510 C   0  0  0  0  0  0  0  0  0  0  0  0
    2.8774   46.0220   29.7693 O   0  0  0  0  0  0  0  0  0  0  0  0
    1.0269   47.3040   29.9642 O   0  0  0  0  0  0  0  0  0  0  0  0
    3.6736   50.7461   34.7384 C   0  0  0  0  0  0  0  0  0  0  0  0
    2.6841   49.8010   34.3087 O   0  0  0  0  0  0  0  0  0  0  0  0
    8.8117   40.1832   34.2125 O   0  0  0  0  0  0  0  0  0  0  0  0
   11.2411   40.7939   33.3709 O   0  0  0  0  0  0  0  0  0  0  0  0
   10.9179   40.6920   31.9985 C   0  0  0  0  0  0  0  0  0  0  0  0
   11.5175   39.3837   31.4422 C   0  0  0  0  0  0  0  0  0  0  0  0
   12.7508   39.0887   32.0751 O   0  0  0  0  0  0  0  0  0  0  0  0
   10.6028   38.1915   31.6658 C   0  0  0  0  0  0  0  0  0  0  0  0
   12.9385   37.6818   32.0278 C   0  0  0  0  0  0  0  0  0  0  0  0
    9.6371   38.0805   30.6470 O   0  0  0  0  0  0  0  0  0  0  0  0
   11.5780   37.0215   31.6934 C   0  0  0  0  0  0  0  0  0  0  0  0
   13.4844   37.2119   33.3242 N   0  0  0  0  0  0  0  0  0  0  0  0
   11.6095   36.3201   30.4679 O   0  0  0  0  0  0  0  0  0  0  0  0
   14.4797   36.3318   33.5730 C   0  0  0  0  0  0  0  0  0  0  0  0
   13.1135   37.6278   34.5691 C   0  0  0  0  0  0  0  0  0  0  0  0
   15.2073   35.6155   32.6742 N   0  0  0  0  0  0  0  0  0  0  0  0
   14.6754   36.2305   34.9184 C   0  0  0  0  0  0  0  0  0  0  0  0
   13.8213   37.0452   35.5785 N   0  0  0  0  0  0  0  0  0  0  0  0
   16.1640   34.7604   33.1549 C   0  0  0  0  0  0  0  0  0  0  0  0
   15.6524   35.3507   35.4132 C   0  0  0  0  0  0  0  0  0  0  0  0
   16.3794   34.6318   34.5044 N   0  0  0  0  0  0  0  0  0  0  0  0
   15.9000   35.1934   36.8091 N   0  0  0  0  0  0  0  0  0  0  0  0
    9.0097   45.4349   33.6669 H   0  0  0  0  0  0  0  0  0  0  0  0
   11.1130   46.1994   34.4885 H   0  0  0  0  0  0  0  0  0  0  0  0
   11.9349   45.6934   33.0930 H   0  0  0  0  0  0  0  0  0  0  0  0
    9.3519   43.8345   31.4759 H   0  0  0  0  0  0  0  0  0  0  0  0
   10.7309   44.8932   31.1677 H   0  0  0  0  0  0  0  0  0  0  0  0
    7.0125   44.7148   31.5826 H   0  0  0  0  0  0  0  0  0  0  0  0
   10.3467   47.1893   30.4146 H   0  0  0  0  0  0  0  0  0  0  0  0
    5.4686   46.2840   30.5132 H   0  0  0  0  0  0  0  0  0  0  0  0
    8.7935   48.7709   29.3445 H   0  0  0  0  0  0  0  0  0  0  0  0
    4.4547   47.5573   28.7656 H   0  0  0  0  0  0  0  0  0  0  0  0
    4.5479   50.6214   28.5806 H   0  0  0  0  0  0  0  0  0  0  0  0
    3.1328   49.5714   28.1645 H   0  0  0  0  0  0  0  0  0  0  0  0
    4.6619   49.4436   27.2178 H   0  0  0  0  0  0  0  0  0  0  0  0
    5.6828   50.2218   31.1517 H   0  0  0  0  0  0  0  0  0  0  0  0
    1.4613   47.9765   32.5758 H   0  0  0  0  0  0  0  0  0  0  0  0
    4.1741   50.3841   35.6609 H   0  0  0  0  0  0  0  0  0  0  0  0
    3.2072   51.7394   34.9067 H   0  0  0  0  0  0  0  0  0  0  0  0
   11.3955   41.5477   31.4751 H   0  0  0  0  0  0  0  0  0  0  0  0
    9.8292   40.7410   31.7624 H   0  0  0  0  0  0  0  0  0  0  0  0
   11.6981   39.5116   30.3500 H   0  0  0  0  0  0  0  0  0  0  0  0
   10.1117   38.2603   32.6660 H   0  0  0  0  0  0  0  0  0  0  0  0
   13.6767   37.4555   31.2267 H   0  0  0  0  0  0  0  0  0  0  0  0
    8.8961   38.6951   30.8872 H   0  0  0  0  0  0  0  0  0  0  0  0
   11.2791   36.3072   32.4922 H   0  0  0  0  0  0  0  0  0  0  0  0
   11.8828   36.9598   29.7588 H   0  0  0  0  0  0  0  0  0  0  0  0
   12.3300   38.3539   34.7446 H   0  0  0  0  0  0  0  0  0  0  0  0
   16.7562   34.1785   32.4622 H   0  0  0  0  0  0  0  0  0  0  0  0
   16.6347   34.5303   37.1416 H   0  0  0  0  0  0  0  0  0  0  0  0
   15.3531   35.7360   37.5140 H   0  0  0  0  0  0  0  0  0  0  0  0
  1  2  2  0
  1  3  1  0
  3  4  1  0
  4  5  1  0
  6  1  1  0
  7  6  1  0
  6  8  1  0
  8  9  1  0
  9 10  2  0
 11  9  1  0
 10 12  1  0
 13 11  2  0
 12 14  2  0
 14 13  1  0
 14 15  1  0
 15 16  1  0
 16 17  1  0
 16 18  1  0
 18 19  2  0
 20 18  1  0
 19 21  1  0
 22 20  2  0
 20 23  1  0
 21 24  1  0
 21 25  2  0
 25 22  1  0
 23 26  1  0
 23 27  2  0
 24 28  1  0
 25 29  1  0
 28 29  1  0
  4 30  2  0
  4 31  1  0
 32 31  1  0
 32 33  1  0
 33 34  1  0
 33 35  1  0
 34 36  1  0
 35 37  1  0
 35 38  1  0
 38 36  1  0
 36 39  1  0
 38 40  1  0
 41 39  1  0
 42 39  1  0
 43 41  2  0
 41 44  1  0
 45 42  2  0
 46 43  1  0
 44 47  2  0
 44 45  1  0
 48 46  2  0
 48 47  1  0
 47 49  1  0
  6 50  1  1
  7 51  1  0
  7 52  1  0
  8 53  1  0
  8 54  1  0
 10 55  1  0
 11 56  1  0
 12 57  1  0
 13 58  1  0
 16 59  1  6
 17 60  1  0
 17 61  1  0
 17 62  1  0
 19 63  1  0
 22 64  1  0
 28 65  1  0
 28 66  1  0
 32 67  1  0
 32 68  1  0
 33 69  1  0
 35 70  1  0
 36 71  1  0
 37 72  1  0
 38 73  1  0
 40 74  1  0
 42 75  1  0
 46 76  1  0
 49 77  1  0
 49 78  1  0
M  CHG  3   5  -1  23   1  26  -1
M  END
>  <EmbedRMS>  (379) 
0.0828651287636

$$$$

     RDKit          3D

 78 83  0  0  0  0  0  0  0  0999 V2000
   10.2805   43.7663   33.8249 C   0  0  0  0  0  0  0  0  0  0  0  0
   11.4111   43.5919   34.3667 O   0  0  0  0  0  0  0  0  0  0  0  0
    9.3622   42.7247   33.7343 O   0  0  0  0  0  0  0  0  0  0  0  0
    9.8904   41.2264   34.2936 P   0  0  0  0  0  0  0  0  0  0  0  0
   10.3731   41.4564   35.8832 O   0  0  0  0  0  0  0  0  0  0  0  0
    9.9459   45.0735   33.2111 C   0  0  1  0  0  0  0  0  0  0  0  0
   11.0267   46.0291   33.4705 N   0  0  0  0  0  0  0  0  0  0  0  0
    9.7535   44.8538   31.6949 C   0  0  0  0  0  0  0  0  0  0  0  0
    8.7955   45.8410   31.0846 C   0  0  0  0  0  0  0  0  0  0  0  0
    7.4086   45.6008   31.1013 C   0  0  0  0  0  0  0  0  0  0  0  0
    9.2830   46.9878   30.4401 C   0  0  0  0  0  0  0  0  0  0  0  0
    6.5281   46.5014   30.4861 C   0  0  0  0  0  0  0  0  0  0  0  0
    8.4025   47.8895   29.8312 C   0  0  0  0  0  0  0  0  0  0  0  0
    7.0136   47.6501   29.8463 C   0  0  0  0  0  0  0  0  0  0  0  0
    6.0872   48.5161   29.2424 O   0  0  0  0  0  0  0  0  0  0  0  0
    6.4194   49.6755   28.4734 C   0  0  2  0  0  0  0  0  0  0  0  0
    5.1396   50.4598   28.1894 C   0  0  0  0  0  0  0  0  0  0  0  0
    7.0851   49.2770   27.1668 C   0  0  0  0  0  0  0  0  0  0  0  0
    6.5458   48.1886   26.4378 C   0  0  0  0  0  0  0  0  0  0  0  0
    8.2669   49.9296   26.6808 C   0  0  0  0  0  0  0  0  0  0  0  0
    7.2070   47.7640   25.2932 C   0  0  0  0  0  0  0  0  0  0  0  0
    8.9057   49.4416   25.5185 C   0  0  0  0  0  0  0  0  0  0  0  0
    8.8195   51.0820   27.3356 N   0  0  0  0  0  0  0  0  0  0  0  0
    6.8740   46.7265   24.4438 O   0  0  0  0  0  0  0  0  0  0  0  0
    8.3400   48.3602   24.8561 C   0  0  0  0  0  0  0  0  0  0  0  0
   10.1833   51.2602   27.3689 O   0  0  0  0  0  0  0  0  0  0  0  0
    8.0804   52.0324   27.6644 O   0  0  0  0  0  0  0  0  0  0  0  0
    7.8625   46.6697   23.4063 C   0  0  0  0  0  0  0  0  0  0  0  0
    8.7795   47.7305   23.7076 O   0  0  0  0  0  0  0  0  0  0  0  0
    8.8129   40.1841   34.2124 O   0  0  0  0  0  0  0  0  0  0  0  0
   11.2419   40.7944   33.3695 O   0  0  0  0  0  0  0  0  0  0  0  0
   10.9185   40.6911   31.9969 C   0  0  0  0  0  0  0  0  0  0  0  0
   11.5172   39.3814   31.4407 C   0  0  0  0  0  0  0  0  0  0  0  0
   12.7492   39.0856   32.0729 O   0  0  0  0  0  0  0  0  0  0  0  0
   10.6023   38.1908   31.6665 C   0  0  0  0  0  0  0  0  0  0  0  0
   12.9319   37.6781   32.0281 C   0  0  0  0  0  0  0  0  0  0  0  0
    9.6392   38.0797   30.6452 O   0  0  0  0  0  0  0  0  0  0  0  0
   11.5715   37.0165   31.7056 C   0  0  0  0  0  0  0  0  0  0  0  0
   13.4846   37.2121   33.3235 N   0  0  0  0  0  0  0  0  0  0  0  0
   11.6187   36.3383   30.4694 O   0  0  0  0  0  0  0  0  0  0  0  0
   14.4801   36.3321   33.5724 C   0  0  0  0  0  0  0  0  0  0  0  0
   13.1137   37.6275   34.5687 C   0  0  0  0  0  0  0  0  0  0  0  0
   15.2073   35.6153   32.6738 N   0  0  0  0  0  0  0  0  0  0  0  0
   14.6759   36.2308   34.9179 C   0  0  0  0  0  0  0  0  0  0  0  0
   13.8216   37.0452   35.5781 N   0  0  0  0  0  0  0  0  0  0  0  0
   16.1640   34.7602   33.1546 C   0  0  0  0  0  0  0  0  0  0  0  0
   15.6526   35.3508   35.4129 C   0  0  0  0  0  0  0  0  0  0  0  0
   16.3794   34.6317   34.5041 N   0  0  0  0  0  0  0  0  0  0  0  0
   15.8999   35.1935   36.8088 N   0  0  0  0  0  0  0  0  0  0  0  0
    8.9996   45.4381   33.6722 H   0  0  0  0  0  0  0  0  0  0  0  0
   11.0504   46.2277   34.4979 H   0  0  0  0  0  0  0  0  0  0  0  0
   10.7764   46.9368   33.0156 H   0  0  0  0  0  0  0  0  0  0  0  0
   10.7406   44.9070   31.1834 H   0  0  0  0  0  0  0  0  0  0  0  0
    9.3636   43.8352   31.4714 H   0  0  0  0  0  0  0  0  0  0  0  0
    7.0130   44.7166   31.5857 H   0  0  0  0  0  0  0  0  0  0  0  0
   10.3471   47.1869   30.4078 H   0  0  0  0  0  0  0  0  0  0  0  0
    5.4638   46.3037   30.5046 H   0  0  0  0  0  0  0  0  0  0  0  0
    8.8150   48.7655   29.3521 H   0  0  0  0  0  0  0  0  0  0  0  0
    7.0767   50.3210   29.0913 H   0  0  0  0  0  0  0  0  0  0  0  0
    4.4117   49.8328   27.6313 H   0  0  0  0  0  0  0  0  0  0  0  0
    5.3673   51.3683   27.5922 H   0  0  0  0  0  0  0  0  0  0  0  0
    4.6734   50.7752   29.1468 H   0  0  0  0  0  0  0  0  0  0  0  0
    5.6516   47.6745   26.7669 H   0  0  0  0  0  0  0  0  0  0  0  0
    9.8019   49.9077   25.1298 H   0  0  0  0  0  0  0  0  0  0  0  0
    8.3873   45.6917   23.4289 H   0  0  0  0  0  0  0  0  0  0  0  0
    7.3904   46.8411   22.4162 H   0  0  0  0  0  0  0  0  0  0  0  0
   11.3967   41.5459   31.4725 H   0  0  0  0  0  0  0  0  0  0  0  0
    9.8298   40.7409   31.7611 H   0  0  0  0  0  0  0  0  0  0  0  0
   11.6975   39.5066   30.3481 H   0  0  0  0  0  0  0  0  0  0  0  0
   10.1077   38.2647   32.6645 H   0  0  0  0  0  0  0  0  0  0  0  0
   13.6621   37.4468   31.2209 H   0  0  0  0  0  0  0  0  0  0  0  0
    8.8974   38.6943   30.8831 H   0  0  0  0  0  0  0  0  0  0  0  0
   11.2806   36.3073   32.5170 H   0  0  0  0  0  0  0  0  0  0  0  0
   10.8492   35.7110   30.4586 H   0  0  0  0  0  0  0  0  0  0  0  0
   12.3290   38.3524   34.7444 H   0  0  0  0  0  0  0  0  0  0  0  0
   16.7559   34.1780   32.4620 H   0  0  0  0  0  0  0  0  0  0  0  0
   16.6344   34.5301   37.1414 H   0  0  0  0  0  0  0  0  0  0  0  0
   15.3531   35.7362   37.5137 H   0  0  0  0  0  0  0  0  0  0  0  0
  1  2  2  0
  1  3  1  0
  3  4  1  0
  4  5  1  0
  6  1  1  0
  7  6  1  0
  6  8  1  0
  8  9  1  0
  9 10  2  0
 11  9  1  0
 10 12  1  0
 13 11  2  0
 12 14  2  0
 14 13  1  0
 14 15  1  0
 15 16  1  0
 16 17  1  0
 16 18  1  0
 18 19  2  0
 20 18  1  0
 19 21  1  0
 22 20  2  0
 20 23  1  0
 21 24  1  0
 21 25  2  0
 25 22  1  0
 23 26  1  0
 23 27  2  0
 24 28  1  0
 25 29  1  0
 28 29  1  0
  4 30  2  0
  4 31  1  0
 32 31  1  0
 32 33  1  0
 33 34  1  0
 33 35  1  0
 34 36  1  0
 35 37  1  0
 35 38  1  0
 38 36  1  0
 36 39  1  0
 38 40  1  0
 41 39  1  0
 42 39  1  0
 43 41  2  0
 41 44  1  0
 45 42  2  0
 46 43  1  0
 44 47  2  0
 44 45  1  0
 48 46  2  0
 48 47  1  0
 47 49  1  0
  6 50  1  1
  7 51  1  0
  7 52  1  0
  8 53  1  0
  8 54  1  0
 10 55  1  0
 11 56  1  0
 12 57  1  0
 13 58  1  0
 16 59  1  1
 17 60  1  0
 17 61  1  0
 17 62  1  0
 19 63  1  0
 22 64  1  0
 28 65  1  0
 28 66  1  0
 32 67  1  0
 32 68  1  0
 33 69  1  0
 35 70  1  0
 36 71  1  0
 37 72  1  0
 38 73  1  0
 40 74  1  0
 42 75  1  0
 46 76  1  0
 49 77  1  0
 49 78  1  0
M  CHG  3   5  -1  23   1  26  -1
M  END
>  <EmbedRMS>  (380) 
0.082776287698

$$$$

     RDKit          3D

 78 83  0  0  0  0  0  0  0  0999 V2000
   10.2837   43.7627   33.8277 C   0  0  0  0  0  0  0  0  0  0  0  0
   11.4103   43.5864   34.3766 O   0  0  0  0  0  0  0  0  0  0  0  0
    9.3628   42.7238   33.7357 O   0  0  0  0  0  0  0  0  0  0  0  0
    9.8893   41.2251   34.2943 P   0  0  0  0  0  0  0  0  0  0  0  0
   10.3731   41.4545   35.8837 O   0  0  0  0  0  0  0  0  0  0  0  0
    9.9548   45.0700   33.2063 C   0  0  1  0  0  0  0  0  0  0  0  0
   11.0198   46.0481   33.4567 N   0  0  0  0  0  0  0  0  0  0  0  0
    9.7501   44.8508   31.6923 C   0  0  0  0  0  0  0  0  0  0  0  0
    8.7942   45.8417   31.0868 C   0  0  0  0  0  0  0  0  0  0  0  0
    7.4074   45.6013   31.1006 C   0  0  0  0  0  0  0  0  0  0  0  0
    9.2832   46.9892   30.4451 C   0  0  0  0  0  0  0  0  0  0  0  0
    6.5279   46.5023   30.4849 C   0  0  0  0  0  0  0  0  0  0  0  0
    8.4037   47.8902   29.8332 C   0  0  0  0  0  0  0  0  0  0  0  0
    7.0147   47.6508   29.8458 C   0  0  0  0  0  0  0  0  0  0  0  0
    6.0892   48.5167   29.2403 O   0  0  0  0  0  0  0  0  0  0  0  0
    6.4221   49.6737   28.4682 C   0  0  2  0  0  0  0  0  0  0  0  0
    5.1428   50.4591   28.1844 C   0  0  0  0  0  0  0  0  0  0  0  0
    7.0852   49.2702   27.1620 C   0  0  0  0  0  0  0  0  0  0  0  0
    6.5329   48.1918   26.4280 C   0  0  0  0  0  0  0  0  0  0  0  0
    8.2776   49.9067   26.6834 C   0  0  0  0  0  0  0  0  0  0  0  0
    7.1905   47.7630   25.2828 C   0  0  0  0  0  0  0  0  0  0  0  0
    8.9117   49.4159   25.5188 C   0  0  0  0  0  0  0  0  0  0  0  0
    8.8399   51.0484   27.3486 N   0  0  0  0  0  0  0  0  0  0  0  0
    6.8448   46.7340   24.4282 O   0  0  0  0  0  0  0  0  0  0  0  0
    8.3323   48.3456   24.8503 C   0  0  0  0  0  0  0  0  0  0  0  0
    8.0369   52.1103   27.6947 O   0  0  0  0  0  0  0  0  0  0  0  0
   10.0792   51.1839   27.4147 O   0  0  0  0  0  0  0  0  0  0  0  0
    7.8342   46.6684   23.3920 C   0  0  0  0  0  0  0  0  0  0  0  0
    8.7651   47.7152   23.6997 O   0  0  0  0  0  0  0  0  0  0  0  0
    8.8113   40.1835   34.2130 O   0  0  0  0  0  0  0  0  0  0  0  0
   11.2397   40.7943   33.3684 O   0  0  0  0  0  0  0  0  0  0  0  0
   10.9125   40.6875   31.9969 C   0  0  0  0  0  0  0  0  0  0  0  0
   11.5169   39.3810   31.4420 C   0  0  0  0  0  0  0  0  0  0  0  0
   12.7500   39.0881   32.0758 O   0  0  0  0  0  0  0  0  0  0  0  0
   10.6043   38.1892   31.6658 C   0  0  0  0  0  0  0  0  0  0  0  0
   12.9395   37.6813   32.0279 C   0  0  0  0  0  0  0  0  0  0  0  0
    9.6353   38.0951   30.6498 O   0  0  0  0  0  0  0  0  0  0  0  0
   11.5804   37.0191   31.6934 C   0  0  0  0  0  0  0  0  0  0  0  0
   13.4851   37.2119   33.3244 N   0  0  0  0  0  0  0  0  0  0  0  0
   11.6118   36.3188   30.4673 O   0  0  0  0  0  0  0  0  0  0  0  0
   14.4801   36.3316   33.5732 C   0  0  0  0  0  0  0  0  0  0  0  0
   13.1139   37.6277   34.5692 C   0  0  0  0  0  0  0  0  0  0  0  0
   15.2076   35.6154   32.6744 N   0  0  0  0  0  0  0  0  0  0  0  0
   14.6756   36.2303   34.9186 C   0  0  0  0  0  0  0  0  0  0  0  0
   13.8215   37.0451   35.5786 N   0  0  0  0  0  0  0  0  0  0  0  0
   16.1642   34.7602   33.1551 C   0  0  0  0  0  0  0  0  0  0  0  0
   15.6526   35.3505   35.4134 C   0  0  0  0  0  0  0  0  0  0  0  0
   16.3795   34.6316   34.5046 N   0  0  0  0  0  0  0  0  0  0  0  0
   15.9000   35.1933   36.8093 N   0  0  0  0  0  0  0  0  0  0  0  0
    9.0099   45.4350   33.6670 H   0  0  0  0  0  0  0  0  0  0  0  0
   11.1135   46.1992   34.4880 H   0  0  0  0  0  0  0  0  0  0  0  0
   11.9348   45.6932   33.0923 H   0  0  0  0  0  0  0  0  0  0  0  0
   10.7304   44.8922   31.1674 H   0  0  0  0  0  0  0  0  0  0  0  0
    9.3508   43.8343   31.4763 H   0  0  0  0  0  0  0  0  0  0  0  0
    7.0108   44.7164   31.5828 H   0  0  0  0  0  0  0  0  0  0  0  0
   10.3475   47.1887   30.4174 H   0  0  0  0  0  0  0  0  0  0  0  0
    5.4636   46.3046   30.5014 H   0  0  0  0  0  0  0  0  0  0  0  0
    8.8170   48.7666   29.3556 H   0  0  0  0  0  0  0  0  0  0  0  0
    7.0816   50.3204   29.0826 H   0  0  0  0  0  0  0  0  0  0  0  0
    5.3694   51.3632   27.5803 H   0  0  0  0  0  0  0  0  0  0  0  0
    4.4109   49.8304   27.6336 H   0  0  0  0  0  0  0  0  0  0  0  0
    4.6814   50.7818   29.1418 H   0  0  0  0  0  0  0  0  0  0  0  0
    5.6313   47.6885   26.7536 H   0  0  0  0  0  0  0  0  0  0  0  0
    9.8153   49.8714   25.1345 H   0  0  0  0  0  0  0  0  0  0  0  0
    8.3455   45.6832   23.4111 H   0  0  0  0  0  0  0  0  0  0  0  0
    7.3662   46.8506   22.4020 H   0  0  0  0  0  0  0  0  0  0  0  0
    9.8216   40.7223   31.7644 H   0  0  0  0  0  0  0  0  0  0  0  0
   11.3812   41.5456   31.4692 H   0  0  0  0  0  0  0  0  0  0  0  0
   11.6986   39.5089   30.3498 H   0  0  0  0  0  0  0  0  0  0  0  0
   10.1109   38.2736   32.6629 H   0  0  0  0  0  0  0  0  0  0  0  0
   13.6783   37.4561   31.2271 H   0  0  0  0  0  0  0  0  0  0  0  0
    9.0020   37.3859   30.9347 H   0  0  0  0  0  0  0  0  0  0  0  0
   11.2808   36.3052   32.4921 H   0  0  0  0  0  0  0  0  0  0  0  0
   11.8819   36.9599   29.7584 H   0  0  0  0  0  0  0  0  0  0  0  0
   12.3303   38.3538   34.7445 H   0  0  0  0  0  0  0  0  0  0  0  0
   16.7564   34.1783   32.4624 H   0  0  0  0  0  0  0  0  0  0  0  0
   15.3532   35.7359   37.5142 H   0  0  0  0  0  0  0  0  0  0  0  0
   16.6347   34.5301   37.1418 H   0  0  0  0  0  0  0  0  0  0  0  0
  1  2  2  0
  1  3  1  0
  3  4  1  0
  4  5  1  0
  6  1  1  0
  7  6  1  0
  6  8  1  0
  8  9  1  0
  9 10  2  0
 11  9  1  0
 10 12  1  0
 13 11  2  0
 12 14  2  0
 14 13  1  0
 14 15  1  0
 15 16  1  0
 16 17  1  0
 16 18  1  0
 18 19  2  0
 20 18  1  0
 19 21  1  0
 22 20  2  0
 20 23  1  0
 21 24  1  0
 21 25  2  0
 25 22  1  0
 23 26  1  0
 23 27  2  0
 24 28  1  0
 25 29  1  0
 28 29  1  0
  4 30  2  0
  4 31  1  0
 32 31  1  0
 32 33  1  0
 33 34  1  0
 33 35  1  0
 34 36  1  0
 35 37  1  0
 35 38  1  0
 38 36  1  0
 36 39  1  0
 38 40  1  0
 41 39  1  0
 42 39  1  0
 43 41  2  0
 41 44  1  0
 45 42  2  0
 46 43  1  0
 44 47  2  0
 44 45  1  0
 48 46  2  0
 48 47  1  0
 47 49  1  0
  6 50  1  1
  7 51  1  0
  7 52  1  0
  8 53  1  0
  8 54  1  0
 10 55  1  0
 11 56  1  0
 12 57  1  0
 13 58  1  0
 16 59  1  1
 17 60  1  0
 17 61  1  0
 17 62  1  0
 19 63  1  0
 22 64  1  0
 28 65  1  0
 28 66  1  0
 32 67  1  0
 32 68  1  0
 33 69  1  0
 35 70  1  0
 36 71  1  0
 37 72  1  0
 38 73  1  0
 40 74  1  0
 42 75  1  0
 46 76  1  0
 49 77  1  0
 49 78  1  0
M  CHG  3   5  -1  23   1  26  -1
M  END
>  <EmbedRMS>  (381) 
0.0824813889163

$$$$

     RDKit          3D

 78 83  0  0  0  0  0  0  0  0999 V2000
   10.2840   43.7625   33.8276 C   0  0  0  0  0  0  0  0  0  0  0  0
   11.4104   43.5863   34.3768 O   0  0  0  0  0  0  0  0  0  0  0  0
    9.3634   42.7233   33.7352 O   0  0  0  0  0  0  0  0  0  0  0  0
    9.8899   41.2246   34.2940 P   0  0  0  0  0  0  0  0  0  0  0  0
   10.3724   41.4544   35.8837 O   0  0  0  0  0  0  0  0  0  0  0  0
    9.9548   45.0699   33.2065 C   0  0  1  0  0  0  0  0  0  0  0  0
   11.0198   46.0480   33.4569 N   0  0  0  0  0  0  0  0  0  0  0  0
    9.7500   44.8508   31.6926 C   0  0  0  0  0  0  0  0  0  0  0  0
    8.7942   45.8418   31.0873 C   0  0  0  0  0  0  0  0  0  0  0  0
    7.4076   45.6009   31.0998 C   0  0  0  0  0  0  0  0  0  0  0  0
    9.2830   46.9888   30.4448 C   0  0  0  0  0  0  0  0  0  0  0  0
    6.5284   46.5015   30.4835 C   0  0  0  0  0  0  0  0  0  0  0  0
    8.4039   47.8896   29.8316 C   0  0  0  0  0  0  0  0  0  0  0  0
    7.0138   47.6531   29.8484 C   0  0  0  0  0  0  0  0  0  0  0  0
    6.0827   48.5167   29.2472 O   0  0  0  0  0  0  0  0  0  0  0  0
    6.3732   49.7816   28.6418 C   0  0  2  0  0  0  0  0  0  0  0  0
    6.6497   50.8277   29.7275 C   0  0  0  0  0  0  0  0  0  0  0  0
    5.2062   50.2381   27.7777 C   0  0  0  0  0  0  0  0  0  0  0  0
    3.9127   49.7012   28.0112 C   0  0  0  0  0  0  0  0  0  0  0  0
    5.3597   51.2756   26.7951 C   0  0  0  0  0  0  0  0  0  0  0  0
    2.8439   50.1933   27.2736 C   0  0  0  0  0  0  0  0  0  0  0  0
    4.2311   51.7458   26.0877 C   0  0  0  0  0  0  0  0  0  0  0  0
    6.6337   51.8769   26.5199 N   0  0  0  0  0  0  0  0  0  0  0  0
    1.5149   49.8200   27.3347 O   0  0  0  0  0  0  0  0  0  0  0  0
    2.9960   51.1726   26.3539 C   0  0  0  0  0  0  0  0  0  0  0  0
    6.7145   53.2376   26.3335 O   0  0  0  0  0  0  0  0  0  0  0  0
    7.6053   51.1671   26.1902 O   0  0  0  0  0  0  0  0  0  0  0  0
    0.7879   50.6159   26.3888 C   0  0  0  0  0  0  0  0  0  0  0  0
    1.7718   51.4666   25.7848 O   0  0  0  0  0  0  0  0  0  0  0  0
    8.8119   40.1831   34.2121 O   0  0  0  0  0  0  0  0  0  0  0  0
   11.2416   40.7932   33.3699 O   0  0  0  0  0  0  0  0  0  0  0  0
   10.9187   40.6909   31.9972 C   0  0  0  0  0  0  0  0  0  0  0  0
   11.5172   39.3814   31.4407 C   0  0  0  0  0  0  0  0  0  0  0  0
   12.7493   39.0855   32.0727 O   0  0  0  0  0  0  0  0  0  0  0  0
   10.6023   38.1907   31.6665 C   0  0  0  0  0  0  0  0  0  0  0  0
   12.9319   37.6781   32.0281 C   0  0  0  0  0  0  0  0  0  0  0  0
    9.6392   38.0797   30.6452 O   0  0  0  0  0  0  0  0  0  0  0  0
   11.5715   37.0165   31.7056 C   0  0  0  0  0  0  0  0  0  0  0  0
   13.4847   37.2121   33.3235 N   0  0  0  0  0  0  0  0  0  0  0  0
   11.6187   36.3383   30.4694 O   0  0  0  0  0  0  0  0  0  0  0  0
   14.4801   36.3321   33.5724 C   0  0  0  0  0  0  0  0  0  0  0  0
   13.1137   37.6275   34.5687 C   0  0  0  0  0  0  0  0  0  0  0  0
   15.2073   35.6153   32.6738 N   0  0  0  0  0  0  0  0  0  0  0  0
   14.6759   36.2308   34.9179 C   0  0  0  0  0  0  0  0  0  0  0  0
   13.8216   37.0452   35.5781 N   0  0  0  0  0  0  0  0  0  0  0  0
   16.1640   34.7602   33.1546 C   0  0  0  0  0  0  0  0  0  0  0  0
   15.6526   35.3508   35.4129 C   0  0  0  0  0  0  0  0  0  0  0  0
   16.3794   34.6317   34.5041 N   0  0  0  0  0  0  0  0  0  0  0  0
   15.8999   35.1935   36.8088 N   0  0  0  0  0  0  0  0  0  0  0  0
    9.0099   45.4347   33.6674 H   0  0  0  0  0  0  0  0  0  0  0  0
   11.9348   45.6932   33.0924 H   0  0  0  0  0  0  0  0  0  0  0  0
   11.1135   46.1992   34.4882 H   0  0  0  0  0  0  0  0  0  0  0  0
    9.3507   43.8343   31.4764 H   0  0  0  0  0  0  0  0  0  0  0  0
   10.7303   44.8921   31.1676 H   0  0  0  0  0  0  0  0  0  0  0  0
    7.0110   44.7155   31.5813 H   0  0  0  0  0  0  0  0  0  0  0  0
   10.3476   47.1868   30.4152 H   0  0  0  0  0  0  0  0  0  0  0  0
    5.4641   46.3034   30.5003 H   0  0  0  0  0  0  0  0  0  0  0  0
    8.8218   48.7594   29.3463 H   0  0  0  0  0  0  0  0  0  0  0  0
    7.2632   49.6553   27.9978 H   0  0  0  0  0  0  0  0  0  0  0  0
    7.4969   50.5124   30.3697 H   0  0  0  0  0  0  0  0  0  0  0  0
    6.9110   51.8050   29.2703 H   0  0  0  0  0  0  0  0  0  0  0  0
    5.7527   50.9585   30.3701 H   0  0  0  0  0  0  0  0  0  0  0  0
    3.7312   48.9393   28.7575 H   0  0  0  0  0  0  0  0  0  0  0  0
    4.3188   52.5280   25.3446 H   0  0  0  0  0  0  0  0  0  0  0  0
    0.0211   51.2267   26.9098 H   0  0  0  0  0  0  0  0  0  0  0  0
    0.3191   49.9663   25.6202 H   0  0  0  0  0  0  0  0  0  0  0  0
    9.8300   40.7410   31.7611 H   0  0  0  0  0  0  0  0  0  0  0  0
   11.3972   41.5459   31.4735 H   0  0  0  0  0  0  0  0  0  0  0  0
   11.6974   39.5067   30.3480 H   0  0  0  0  0  0  0  0  0  0  0  0
   10.1077   38.2647   32.6645 H   0  0  0  0  0  0  0  0  0  0  0  0
   13.6621   37.4467   31.2208 H   0  0  0  0  0  0  0  0  0  0  0  0
    8.8974   38.6943   30.8831 H   0  0  0  0  0  0  0  0  0  0  0  0
   11.2806   36.3073   32.5170 H   0  0  0  0  0  0  0  0  0  0  0  0
   10.8493   35.7110   30.4585 H   0  0  0  0  0  0  0  0  0  0  0  0
   12.3290   38.3524   34.7444 H   0  0  0  0  0  0  0  0  0  0  0  0
   16.7559   34.1780   32.4619 H   0  0  0  0  0  0  0  0  0  0  0  0
   15.3531   35.7362   37.5137 H   0  0  0  0  0  0  0  0  0  0  0  0
   16.6344   34.5301   37.1414 H   0  0  0  0  0  0  0  0  0  0  0  0
  1  2  2  0
  1  3  1  0
  3  4  1  0
  4  5  1  0
  6  1  1  0
  7  6  1  0
  6  8  1  0
  8  9  1  0
  9 10  2  0
 11  9  1  0
 10 12  1  0
 13 11  2  0
 12 14  2  0
 14 13  1  0
 14 15  1  0
 15 16  1  0
 16 17  1  0
 16 18  1  0
 18 19  2  0
 20 18  1  0
 19 21  1  0
 22 20  2  0
 20 23  1  0
 21 24  1  0
 21 25  2  0
 25 22  1  0
 23 26  1  0
 23 27  2  0
 24 28  1  0
 25 29  1  0
 28 29  1  0
  4 30  2  0
  4 31  1  0
 32 31  1  0
 32 33  1  0
 33 34  1  0
 33 35  1  0
 34 36  1  0
 35 37  1  0
 35 38  1  0
 38 36  1  0
 36 39  1  0
 38 40  1  0
 41 39  1  0
 42 39  1  0
 43 41  2  0
 41 44  1  0
 45 42  2  0
 46 43  1  0
 44 47  2  0
 44 45  1  0
 48 46  2  0
 48 47  1  0
 47 49  1  0
  6 50  1  1
  7 51  1  0
  7 52  1  0
  8 53  1  0
  8 54  1  0
 10 55  1  0
 11 56  1  0
 12 57  1  0
 13 58  1  0
 16 59  1  6
 17 60  1  0
 17 61  1  0
 17 62  1  0
 19 63  1  0
 22 64  1  0
 28 65  1  0
 28 66  1  0
 32 67  1  0
 32 68  1  0
 33 69  1  0
 35 70  1  0
 36 71  1  0
 37 72  1  0
 38 73  1  0
 40 74  1  0
 42 75  1  0
 46 76  1  0
 49 77  1  0
 49 78  1  0
M  CHG  3   5  -1  23   1  26  -1
M  END
>  <EmbedRMS>  (382) 
0.0838181084741

$$$$

     RDKit          3D

 78 83  0  0  0  0  0  0  0  0999 V2000
   10.2833   43.7663   33.8257 C   0  0  0  0  0  0  0  0  0  0  0  0
   11.4101   43.5930   34.3752 O   0  0  0  0  0  0  0  0  0  0  0  0
    9.3635   42.7257   33.7352 O   0  0  0  0  0  0  0  0  0  0  0  0
    9.8902   41.2269   34.2941 P   0  0  0  0  0  0  0  0  0  0  0  0
   10.3739   41.4560   35.8835 O   0  0  0  0  0  0  0  0  0  0  0  0
    9.9547   45.0696   33.2037 C   0  0  1  0  0  0  0  0  0  0  0  0
   11.0273   46.0323   33.4760 N   0  0  0  0  0  0  0  0  0  0  0  0
    9.7471   44.8485   31.6877 C   0  0  0  0  0  0  0  0  0  0  0  0
    8.7926   45.8411   31.0847 C   0  0  0  0  0  0  0  0  0  0  0  0
    7.4060   45.6009   31.0989 C   0  0  0  0  0  0  0  0  0  0  0  0
    9.2817   46.9875   30.4415 C   0  0  0  0  0  0  0  0  0  0  0  0
    6.5247   46.5005   30.4839 C   0  0  0  0  0  0  0  0  0  0  0  0
    8.4005   47.8874   29.8314 C   0  0  0  0  0  0  0  0  0  0  0  0
    7.0182   47.6580   29.8480 C   0  0  0  0  0  0  0  0  0  0  0  0
    6.1827   48.5992   29.2240 O   0  0  0  0  0  0  0  0  0  0  0  0
    4.7549   48.5844   29.2427 C   0  0  2  0  0  0  0  0  0  0  0  0
    4.2219   49.5830   28.2148 C   0  0  0  0  0  0  0  0  0  0  0  0
    4.2143   48.8899   30.6321 C   0  0  0  0  0  0  0  0  0  0  0  0
    3.3092   47.9668   31.2115 C   0  0  0  0  0  0  0  0  0  0  0  0
    4.5372   50.0913   31.3489 C   0  0  0  0  0  0  0  0  0  0  0  0
    2.7688   48.2561   32.4576 C   0  0  0  0  0  0  0  0  0  0  0  0
    3.9454   50.3389   32.6073 C   0  0  0  0  0  0  0  0  0  0  0  0
    5.4367   51.0706   30.8158 N   0  0  0  0  0  0  0  0  0  0  0  0
    1.8792   47.5064   33.2029 O   0  0  0  0  0  0  0  0  0  0  0  0
    3.0724   49.3923   33.1255 C   0  0  0  0  0  0  0  0  0  0  0  0
    6.7702   50.7684   30.6754 O   0  0  0  0  0  0  0  0  0  0  0  0
    5.0821   52.2661   30.7634 O   0  0  0  0  0  0  0  0  0  0  0  0
    1.6093   48.2192   34.4177 C   0  0  0  0  0  0  0  0  0  0  0  0
    2.3911   49.4181   34.3271 O   0  0  0  0  0  0  0  0  0  0  0  0
    8.8121   40.1851   34.2131 O   0  0  0  0  0  0  0  0  0  0  0  0
   11.2402   40.7952   33.3682 O   0  0  0  0  0  0  0  0  0  0  0  0
   10.9126   40.6877   31.9968 C   0  0  0  0  0  0  0  0  0  0  0  0
   11.5169   39.3811   31.4421 C   0  0  0  0  0  0  0  0  0  0  0  0
   12.7500   39.0881   32.0759 O   0  0  0  0  0  0  0  0  0  0  0  0
   10.6043   38.1893   31.6659 C   0  0  0  0  0  0  0  0  0  0  0  0
   12.9395   37.6813   32.0280 C   0  0  0  0  0  0  0  0  0  0  0  0
    9.6354   38.0951   30.6499 O   0  0  0  0  0  0  0  0  0  0  0  0
   11.5803   37.0191   31.6934 C   0  0  0  0  0  0  0  0  0  0  0  0
   13.4851   37.2118   33.3244 N   0  0  0  0  0  0  0  0  0  0  0  0
   11.6118   36.3188   30.4674 O   0  0  0  0  0  0  0  0  0  0  0  0
   14.4801   36.3316   33.5732 C   0  0  0  0  0  0  0  0  0  0  0  0
   13.1139   37.6277   34.5692 C   0  0  0  0  0  0  0  0  0  0  0  0
   15.2076   35.6154   32.6744 N   0  0  0  0  0  0  0  0  0  0  0  0
   14.6756   36.2303   34.9186 C   0  0  0  0  0  0  0  0  0  0  0  0
   13.8215   37.0450   35.5786 N   0  0  0  0  0  0  0  0  0  0  0  0
   16.1642   34.7602   33.1551 C   0  0  0  0  0  0  0  0  0  0  0  0
   15.6526   35.3505   35.4134 C   0  0  0  0  0  0  0  0  0  0  0  0
   16.3796   34.6316   34.5045 N   0  0  0  0  0  0  0  0  0  0  0  0
   15.9001   35.1933   36.8093 N   0  0  0  0  0  0  0  0  0  0  0  0
    9.0120   45.4319   33.6713 H   0  0  0  0  0  0  0  0  0  0  0  0
   10.7260   46.9689   33.1216 H   0  0  0  0  0  0  0  0  0  0  0  0
   11.8907   45.7660   32.9477 H   0  0  0  0  0  0  0  0  0  0  0  0
    9.3425   43.8332   31.4759 H   0  0  0  0  0  0  0  0  0  0  0  0
   10.7235   44.8825   31.1559 H   0  0  0  0  0  0  0  0  0  0  0  0
    7.0105   44.7143   31.5792 H   0  0  0  0  0  0  0  0  0  0  0  0
   10.3460   47.1858   30.4094 H   0  0  0  0  0  0  0  0  0  0  0  0
    5.4687   46.2786   30.5056 H   0  0  0  0  0  0  0  0  0  0  0  0
    8.7939   48.7697   29.3425 H   0  0  0  0  0  0  0  0  0  0  0  0
    4.4095   47.5829   28.9018 H   0  0  0  0  0  0  0  0  0  0  0  0
    4.6088   50.6046   28.4044 H   0  0  0  0  0  0  0  0  0  0  0  0
    3.1112   49.6042   28.2402 H   0  0  0  0  0  0  0  0  0  0  0  0
    4.5432   49.2762   27.1968 H   0  0  0  0  0  0  0  0  0  0  0  0
    3.0255   47.0538   30.7035 H   0  0  0  0  0  0  0  0  0  0  0  0
    4.1698   51.2386   33.1659 H   0  0  0  0  0  0  0  0  0  0  0  0
    0.5298   48.4698   34.4843 H   0  0  0  0  0  0  0  0  0  0  0  0
    1.9294   47.6185   35.2947 H   0  0  0  0  0  0  0  0  0  0  0  0
   11.3809   41.5456   31.4686 H   0  0  0  0  0  0  0  0  0  0  0  0
    9.8216   40.7223   31.7646 H   0  0  0  0  0  0  0  0  0  0  0  0
   11.6986   39.5089   30.3499 H   0  0  0  0  0  0  0  0  0  0  0  0
   10.1108   38.2737   32.6630 H   0  0  0  0  0  0  0  0  0  0  0  0
   13.6783   37.4561   31.2271 H   0  0  0  0  0  0  0  0  0  0  0  0
    9.0020   37.3861   30.9347 H   0  0  0  0  0  0  0  0  0  0  0  0
   11.2807   36.3053   32.4921 H   0  0  0  0  0  0  0  0  0  0  0  0
   11.8818   36.9599   29.7584 H   0  0  0  0  0  0  0  0  0  0  0  0
   12.3303   38.3538   34.7445 H   0  0  0  0  0  0  0  0  0  0  0  0
   16.7563   34.1782   32.4623 H   0  0  0  0  0  0  0  0  0  0  0  0
   15.3532   35.7359   37.5142 H   0  0  0  0  0  0  0  0  0  0  0  0
   16.6347   34.5301   37.1419 H   0  0  0  0  0  0  0  0  0  0  0  0
  1  2  2  0
  1  3  1  0
  3  4  1  0
  4  5  1  0
  6  1  1  0
  7  6  1  0
  6  8  1  0
  8  9  1  0
  9 10  2  0
 11  9  1  0
 10 12  1  0
 13 11  2  0
 12 14  2  0
 14 13  1  0
 14 15  1  0
 15 16  1  0
 16 17  1  0
 16 18  1  0
 18 19  2  0
 20 18  1  0
 19 21  1  0
 22 20  2  0
 20 23  1  0
 21 24  1  0
 21 25  2  0
 25 22  1  0
 23 26  1  0
 23 27  2  0
 24 28  1  0
 25 29  1  0
 28 29  1  0
  4 30  2  0
  4 31  1  0
 32 31  1  0
 32 33  1  0
 33 34  1  0
 33 35  1  0
 34 36  1  0
 35 37  1  0
 35 38  1  0
 38 36  1  0
 36 39  1  0
 38 40  1  0
 41 39  1  0
 42 39  1  0
 43 41  2  0
 41 44  1  0
 45 42  2  0
 46 43  1  0
 44 47  2  0
 44 45  1  0
 48 46  2  0
 48 47  1  0
 47 49  1  0
  6 50  1  1
  7 51  1  0
  7 52  1  0
  8 53  1  0
  8 54  1  0
 10 55  1  0
 11 56  1  0
 12 57  1  0
 13 58  1  0
 16 59  1  6
 17 60  1  0
 17 61  1  0
 17 62  1  0
 19 63  1  0
 22 64  1  0
 28 65  1  0
 28 66  1  0
 32 67  1  0
 32 68  1  0
 33 69  1  0
 35 70  1  0
 36 71  1  0
 37 72  1  0
 38 73  1  0
 40 74  1  0
 42 75  1  0
 46 76  1  0
 49 77  1  0
 49 78  1  0
M  CHG  3   5  -1  23   1  26  -1
M  END
>  <EmbedRMS>  (383) 
0.0815500387138

$$$$

     RDKit          3D

 78 83  0  0  0  0  0  0  0  0999 V2000
   10.2837   43.7626   33.8266 C   0  0  0  0  0  0  0  0  0  0  0  0
   11.4097   43.5860   34.3766 O   0  0  0  0  0  0  0  0  0  0  0  0
    9.3634   42.7235   33.7328 O   0  0  0  0  0  0  0  0  0  0  0  0
    9.8892   41.2250   34.2936 P   0  0  0  0  0  0  0  0  0  0  0  0
   10.3707   41.4550   35.8837 O   0  0  0  0  0  0  0  0  0  0  0  0
    9.9546   45.0703   33.2060 C   0  0  1  0  0  0  0  0  0  0  0  0
   11.0175   46.0501   33.4601 N   0  0  0  0  0  0  0  0  0  0  0  0
    9.7540   44.8531   31.6918 C   0  0  0  0  0  0  0  0  0  0  0  0
    8.7975   45.8431   31.0880 C   0  0  0  0  0  0  0  0  0  0  0  0
    7.4115   45.6050   31.1131 C   0  0  0  0  0  0  0  0  0  0  0  0
    9.2835   46.9880   30.4402 C   0  0  0  0  0  0  0  0  0  0  0  0
    6.5274   46.5019   30.5009 C   0  0  0  0  0  0  0  0  0  0  0  0
    8.3992   47.8791   29.8211 C   0  0  0  0  0  0  0  0  0  0  0  0
    7.0162   47.6482   29.8414 C   0  0  0  0  0  0  0  0  0  0  0  0
    6.1855   48.5710   29.1805 O   0  0  0  0  0  0  0  0  0  0  0  0
    4.7607   48.7021   29.2960 C   0  0  2  0  0  0  0  0  0  0  0  0
    4.3968   49.1630   30.7160 C   0  0  0  0  0  0  0  0  0  0  0  0
    4.0207   47.4659   28.7767 C   0  0  0  0  0  0  0  0  0  0  0  0
    2.9897   46.8592   29.5492 C   0  0  0  0  0  0  0  0  0  0  0  0
    4.3570   46.8892   27.5030 C   0  0  0  0  0  0  0  0  0  0  0  0
    2.3681   45.7188   29.0589 C   0  0  0  0  0  0  0  0  0  0  0  0
    3.6907   45.7206   27.0625 C   0  0  0  0  0  0  0  0  0  0  0  0
    5.3697   47.4637   26.6582 N   0  0  0  0  0  0  0  0  0  0  0  0
    1.3604   44.9711   29.6415 O   0  0  0  0  0  0  0  0  0  0  0  0
    2.7019   45.1746   27.8681 C   0  0  0  0  0  0  0  0  0  0  0  0
    5.3988   48.8199   26.4235 O   0  0  0  0  0  0  0  0  0  0  0  0
    6.0803   46.7200   25.9477 O   0  0  0  0  0  0  0  0  0  0  0  0
    1.0371   43.8912   28.7512 C   0  0  0  0  0  0  0  0  0  0  0  0
    1.9182   44.0594   27.6310 O   0  0  0  0  0  0  0  0  0  0  0  0
    8.8115   40.1832   34.2121 O   0  0  0  0  0  0  0  0  0  0  0  0
   11.2410   40.7933   33.3699 O   0  0  0  0  0  0  0  0  0  0  0  0
   10.9173   40.6904   31.9973 C   0  0  0  0  0  0  0  0  0  0  0  0
   11.5183   39.3822   31.4392 C   0  0  0  0  0  0  0  0  0  0  0  0
   12.7498   39.0865   32.0725 O   0  0  0  0  0  0  0  0  0  0  0  0
   10.6039   38.1909   31.6651 C   0  0  0  0  0  0  0  0  0  0  0  0
   12.9326   37.6788   32.0277 C   0  0  0  0  0  0  0  0  0  0  0  0
    9.6410   38.0780   30.6442 O   0  0  0  0  0  0  0  0  0  0  0  0
   11.5725   37.0173   31.7049 C   0  0  0  0  0  0  0  0  0  0  0  0
   13.4845   37.2119   33.3230 N   0  0  0  0  0  0  0  0  0  0  0  0
   11.6202   36.3409   30.4683 O   0  0  0  0  0  0  0  0  0  0  0  0
   14.4790   36.3310   33.5720 C   0  0  0  0  0  0  0  0  0  0  0  0
   13.1144   37.6283   34.5679 C   0  0  0  0  0  0  0  0  0  0  0  0
   15.2070   35.6147   32.6737 N   0  0  0  0  0  0  0  0  0  0  0  0
   14.6745   36.2299   34.9174 C   0  0  0  0  0  0  0  0  0  0  0  0
   13.8216   37.0454   35.5773 N   0  0  0  0  0  0  0  0  0  0  0  0
   16.1649   34.7614   33.1548 C   0  0  0  0  0  0  0  0  0  0  0  0
   15.6508   35.3510   35.4131 C   0  0  0  0  0  0  0  0  0  0  0  0
   16.3790   34.6323   34.5048 N   0  0  0  0  0  0  0  0  0  0  0  0
   15.8951   35.1936   36.8097 N   0  0  0  0  0  0  0  0  0  0  0  0
    9.0066   45.4348   33.6618 H   0  0  0  0  0  0  0  0  0  0  0  0
   11.1106   46.1973   34.4916 H   0  0  0  0  0  0  0  0  0  0  0  0
   11.9352   45.7020   33.0960 H   0  0  0  0  0  0  0  0  0  0  0  0
    9.3573   43.8367   31.4707 H   0  0  0  0  0  0  0  0  0  0  0  0
   10.7351   44.9002   31.1697 H   0  0  0  0  0  0  0  0  0  0  0  0
    7.0177   44.7264   31.6101 H   0  0  0  0  0  0  0  0  0  0  0  0
   10.3472   47.1895   30.4081 H   0  0  0  0  0  0  0  0  0  0  0  0
    5.4750   46.2805   30.5517 H   0  0  0  0  0  0  0  0  0  0  0  0
    8.7908   48.7531   29.3158 H   0  0  0  0  0  0  0  0  0  0  0  0
    4.4587   49.5406   28.6347 H   0  0  0  0  0  0  0  0  0  0  0  0
    3.3290   49.4669   30.7625 H   0  0  0  0  0  0  0  0  0  0  0  0
    5.0141   50.0462   30.9878 H   0  0  0  0  0  0  0  0  0  0  0  0
    4.5871   48.3635   31.4626 H   0  0  0  0  0  0  0  0  0  0  0  0
    2.6785   47.2381   30.5121 H   0  0  0  0  0  0  0  0  0  0  0  0
    3.9255   45.2609   26.1093 H   0  0  0  0  0  0  0  0  0  0  0  0
    1.2289   42.9129   29.2437 H   0  0  0  0  0  0  0  0  0  0  0  0
   -0.0223   43.9672   28.4254 H   0  0  0  0  0  0  0  0  0  0  0  0
    9.8271   40.7361   31.7656 H   0  0  0  0  0  0  0  0  0  0  0  0
   11.3939   41.5457   31.4722 H   0  0  0  0  0  0  0  0  0  0  0  0
   11.7005   39.5068   30.3459 H   0  0  0  0  0  0  0  0  0  0  0  0
   10.1091   38.2651   32.6629 H   0  0  0  0  0  0  0  0  0  0  0  0
   13.6624   37.4468   31.2200 H   0  0  0  0  0  0  0  0  0  0  0  0
    8.8997   38.6925   30.8819 H   0  0  0  0  0  0  0  0  0  0  0  0
   11.2805   36.3063   32.5148 H   0  0  0  0  0  0  0  0  0  0  0  0
   10.8513   35.7132   30.4577 H   0  0  0  0  0  0  0  0  0  0  0  0
   12.3289   38.3522   34.7436 H   0  0  0  0  0  0  0  0  0  0  0  0
   16.7538   34.1767   32.4609 H   0  0  0  0  0  0  0  0  0  0  0  0
   15.3493   35.7376   37.5148 H   0  0  0  0  0  0  0  0  0  0  0  0
   16.6304   34.5322   37.1428 H   0  0  0  0  0  0  0  0  0  0  0  0
  1  2  2  0
  1  3  1  0
  3  4  1  0
  4  5  1  0
  6  1  1  0
  7  6  1  0
  6  8  1  0
  8  9  1  0
  9 10  2  0
 11  9  1  0
 10 12  1  0
 13 11  2  0
 12 14  2  0
 14 13  1  0
 14 15  1  0
 15 16  1  0
 16 17  1  0
 16 18  1  0
 18 19  2  0
 20 18  1  0
 19 21  1  0
 22 20  2  0
 20 23  1  0
 21 24  1  0
 21 25  2  0
 25 22  1  0
 23 26  1  0
 23 27  2  0
 24 28  1  0
 25 29  1  0
 28 29  1  0
  4 30  2  0
  4 31  1  0
 32 31  1  0
 32 33  1  0
 33 34  1  0
 33 35  1  0
 34 36  1  0
 35 37  1  0
 35 38  1  0
 38 36  1  0
 36 39  1  0
 38 40  1  0
 41 39  1  0
 42 39  1  0
 43 41  2  0
 41 44  1  0
 45 42  2  0
 46 43  1  0
 44 47  2  0
 44 45  1  0
 48 46  2  0
 48 47  1  0
 47 49  1  0
  6 50  1  1
  7 51  1  0
  7 52  1  0
  8 53  1  0
  8 54  1  0
 10 55  1  0
 11 56  1  0
 12 57  1  0
 13 58  1  0
 16 59  1  6
 17 60  1  0
 17 61  1  0
 17 62  1  0
 19 63  1  0
 22 64  1  0
 28 65  1  0
 28 66  1  0
 32 67  1  0
 32 68  1  0
 33 69  1  0
 35 70  1  0
 36 71  1  0
 37 72  1  0
 38 73  1  0
 40 74  1  0
 42 75  1  0
 46 76  1  0
 49 77  1  0
 49 78  1  0
M  CHG  3   5  -1  23   1  26  -1
M  END
>  <EmbedRMS>  (384) 
0.0843546765096

$$$$

     RDKit          3D

 78 83  0  0  0  0  0  0  0  0999 V2000
   10.2803   43.7665   33.8251 C   0  0  0  0  0  0  0  0  0  0  0  0
   11.4110   43.5919   34.3666 O   0  0  0  0  0  0  0  0  0  0  0  0
    9.3616   42.7251   33.7349 O   0  0  0  0  0  0  0  0  0  0  0  0
    9.8899   41.2268   34.2940 P   0  0  0  0  0  0  0  0  0  0  0  0
   10.3738   41.4565   35.8831 O   0  0  0  0  0  0  0  0  0  0  0  0
    9.9459   45.0736   33.2111 C   0  0  1  0  0  0  0  0  0  0  0  0
   11.0267   46.0291   33.4705 N   0  0  0  0  0  0  0  0  0  0  0  0
    9.7536   44.8538   31.6949 C   0  0  0  0  0  0  0  0  0  0  0  0
    8.7955   45.8408   31.0845 C   0  0  0  0  0  0  0  0  0  0  0  0
    7.4087   45.6008   31.1014 C   0  0  0  0  0  0  0  0  0  0  0  0
    9.2827   46.9878   30.4404 C   0  0  0  0  0  0  0  0  0  0  0  0
    6.5284   46.5017   30.4865 C   0  0  0  0  0  0  0  0  0  0  0  0
    8.4022   47.8895   29.8314 C   0  0  0  0  0  0  0  0  0  0  0  0
    7.0137   47.6500   29.8454 C   0  0  0  0  0  0  0  0  0  0  0  0
    6.0850   48.5146   29.2424 O   0  0  0  0  0  0  0  0  0  0  0  0
    6.4068   49.6627   28.4564 C   0  0  2  0  0  0  0  0  0  0  0  0
    5.1466   50.5011   28.2405 C   0  0  0  0  0  0  0  0  0  0  0  0
    7.0343   49.2680   27.1273 C   0  0  0  0  0  0  0  0  0  0  0  0
    8.2885   49.8338   26.7899 C   0  0  0  0  0  0  0  0  0  0  0  0
    6.3867   48.3991   26.1855 C   0  0  0  0  0  0  0  0  0  0  0  0
    8.8501   49.5228   25.5583 C   0  0  0  0  0  0  0  0  0  0  0  0
    6.9995   48.1301   24.9417 C   0  0  0  0  0  0  0  0  0  0  0  0
    5.1135   47.8024   26.4598 N   0  0  0  0  0  0  0  0  0  0  0  0
   10.0514   49.9535   25.0290 O   0  0  0  0  0  0  0  0  0  0  0  0
    8.2324   48.7081   24.6729 C   0  0  0  0  0  0  0  0  0  0  0  0
    5.0027   46.8528   27.4473 O   0  0  0  0  0  0  0  0  0  0  0  0
    4.1906   47.9146   25.6270 O   0  0  0  0  0  0  0  0  0  0  0  0
   10.1963   49.3687   23.7275 C   0  0  0  0  0  0  0  0  0  0  0  0
    9.0123   48.5814   23.5395 O   0  0  0  0  0  0  0  0  0  0  0  0
    8.8123   40.1845   34.2134 O   0  0  0  0  0  0  0  0  0  0  0  0
   11.2400   40.7954   33.3680 O   0  0  0  0  0  0  0  0  0  0  0  0
   10.9124   40.6877   31.9967 C   0  0  0  0  0  0  0  0  0  0  0  0
   11.5169   39.3811   31.4420 C   0  0  0  0  0  0  0  0  0  0  0  0
   12.7500   39.0881   32.0760 O   0  0  0  0  0  0  0  0  0  0  0  0
   10.6042   38.1893   31.6659 C   0  0  0  0  0  0  0  0  0  0  0  0
   12.9395   37.6814   32.0280 C   0  0  0  0  0  0  0  0  0  0  0  0
    9.6353   38.0951   30.6499 O   0  0  0  0  0  0  0  0  0  0  0  0
   11.5804   37.0191   31.6934 C   0  0  0  0  0  0  0  0  0  0  0  0
   13.4851   37.2119   33.3244 N   0  0  0  0  0  0  0  0  0  0  0  0
   11.6118   36.3189   30.4673 O   0  0  0  0  0  0  0  0  0  0  0  0
   14.4801   36.3316   33.5732 C   0  0  0  0  0  0  0  0  0  0  0  0
   13.1139   37.6277   34.5692 C   0  0  0  0  0  0  0  0  0  0  0  0
   15.2076   35.6154   32.6744 N   0  0  0  0  0  0  0  0  0  0  0  0
   14.6756   36.2303   34.9186 C   0  0  0  0  0  0  0  0  0  0  0  0
   13.8215   37.0451   35.5786 N   0  0  0  0  0  0  0  0  0  0  0  0
   16.1642   34.7602   33.1551 C   0  0  0  0  0  0  0  0  0  0  0  0
   15.6526   35.3505   35.4134 C   0  0  0  0  0  0  0  0  0  0  0  0
   16.3796   34.6316   34.5045 N   0  0  0  0  0  0  0  0  0  0  0  0
   15.9000   35.1933   36.8093 N   0  0  0  0  0  0  0  0  0  0  0  0
    8.9995   45.4383   33.6721 H   0  0  0  0  0  0  0  0  0  0  0  0
   10.7765   46.9368   33.0156 H   0  0  0  0  0  0  0  0  0  0  0  0
   11.0504   46.2277   34.4979 H   0  0  0  0  0  0  0  0  0  0  0  0
   10.7407   44.9070   31.1834 H   0  0  0  0  0  0  0  0  0  0  0  0
    9.3637   43.8351   31.4714 H   0  0  0  0  0  0  0  0  0  0  0  0
    7.0130   44.7168   31.5860 H   0  0  0  0  0  0  0  0  0  0  0  0
   10.3468   47.1876   30.4091 H   0  0  0  0  0  0  0  0  0  0  0  0
    5.4641   46.3041   30.5055 H   0  0  0  0  0  0  0  0  0  0  0  0
    8.8153   48.7668   29.3575 H   0  0  0  0  0  0  0  0  0  0  0  0
    7.1032   50.3045   29.0408 H   0  0  0  0  0  0  0  0  0  0  0  0
    5.3763   51.3826   27.6043 H   0  0  0  0  0  0  0  0  0  0  0  0
    4.3424   49.9071   27.7612 H   0  0  0  0  0  0  0  0  0  0  0  0
    4.7693   50.8647   29.2199 H   0  0  0  0  0  0  0  0  0  0  0  0
    8.8087   50.5046   27.4617 H   0  0  0  0  0  0  0  0  0  0  0  0
    6.5301   47.4812   24.2133 H   0  0  0  0  0  0  0  0  0  0  0  0
   11.0967   48.7200   23.6960 H   0  0  0  0  0  0  0  0  0  0  0  0
   10.2552   50.1629   22.9540 H   0  0  0  0  0  0  0  0  0  0  0  0
   11.3807   41.5456   31.4683 H   0  0  0  0  0  0  0  0  0  0  0  0
    9.8215   40.7221   31.7645 H   0  0  0  0  0  0  0  0  0  0  0  0
   11.6986   39.5088   30.3499 H   0  0  0  0  0  0  0  0  0  0  0  0
   10.1108   38.2737   32.6630 H   0  0  0  0  0  0  0  0  0  0  0  0
   13.6783   37.4562   31.2271 H   0  0  0  0  0  0  0  0  0  0  0  0
    9.0020   37.3860   30.9348 H   0  0  0  0  0  0  0  0  0  0  0  0
   11.2807   36.3053   32.4921 H   0  0  0  0  0  0  0  0  0  0  0  0
   11.8819   36.9600   29.7584 H   0  0  0  0  0  0  0  0  0  0  0  0
   12.3303   38.3538   34.7446 H   0  0  0  0  0  0  0  0  0  0  0  0
   16.7564   34.1783   32.4623 H   0  0  0  0  0  0  0  0  0  0  0  0
   15.3532   35.7359   37.5142 H   0  0  0  0  0  0  0  0  0  0  0  0
   16.6347   34.5302   37.1418 H   0  0  0  0  0  0  0  0  0  0  0  0
  1  2  2  0
  1  3  1  0
  3  4  1  0
  4  5  1  0
  6  1  1  0
  7  6  1  0
  6  8  1  0
  8  9  1  0
  9 10  2  0
 11  9  1  0
 10 12  1  0
 13 11  2  0
 12 14  2  0
 14 13  1  0
 14 15  1  0
 15 16  1  0
 16 17  1  0
 16 18  1  0
 18 19  2  0
 20 18  1  0
 19 21  1  0
 22 20  2  0
 20 23  1  0
 21 24  1  0
 21 25  2  0
 25 22  1  0
 23 26  1  0
 23 27  2  0
 24 28  1  0
 25 29  1  0
 28 29  1  0
  4 30  2  0
  4 31  1  0
 32 31  1  0
 32 33  1  0
 33 34  1  0
 33 35  1  0
 34 36  1  0
 35 37  1  0
 35 38  1  0
 38 36  1  0
 36 39  1  0
 38 40  1  0
 41 39  1  0
 42 39  1  0
 43 41  2  0
 41 44  1  0
 45 42  2  0
 46 43  1  0
 44 47  2  0
 44 45  1  0
 48 46  2  0
 48 47  1  0
 47 49  1  0
  6 50  1  1
  7 51  1  0
  7 52  1  0
  8 53  1  0
  8 54  1  0
 10 55  1  0
 11 56  1  0
 12 57  1  0
 13 58  1  0
 16 59  1  1
 17 60  1  0
 17 61  1  0
 17 62  1  0
 19 63  1  0
 22 64  1  0
 28 65  1  0
 28 66  1  0
 32 67  1  0
 32 68  1  0
 33 69  1  0
 35 70  1  0
 36 71  1  0
 37 72  1  0
 38 73  1  0
 40 74  1  0
 42 75  1  0
 46 76  1  0
 49 77  1  0
 49 78  1  0
M  CHG  3   5  -1  23   1  26  -1
M  END
>  <EmbedRMS>  (385) 
0.0814002332281

$$$$

     RDKit          3D

 78 83  0  0  0  0  0  0  0  0999 V2000
   10.2840   43.7625   33.8275 C   0  0  0  0  0  0  0  0  0  0  0  0
   11.4104   43.5863   34.3767 O   0  0  0  0  0  0  0  0  0  0  0  0
    9.3634   42.7234   33.7351 O   0  0  0  0  0  0  0  0  0  0  0  0
    9.8899   41.2246   34.2940 P   0  0  0  0  0  0  0  0  0  0  0  0
   10.3723   41.4544   35.8837 O   0  0  0  0  0  0  0  0  0  0  0  0
    9.9550   45.0699   33.2064 C   0  0  1  0  0  0  0  0  0  0  0  0
   11.0198   46.0481   33.4572 N   0  0  0  0  0  0  0  0  0  0  0  0
    9.7507   44.8511   31.6923 C   0  0  0  0  0  0  0  0  0  0  0  0
    8.7947   45.8420   31.0872 C   0  0  0  0  0  0  0  0  0  0  0  0
    7.4085   45.6009   31.1003 C   0  0  0  0  0  0  0  0  0  0  0  0
    9.2825   46.9889   30.4450 C   0  0  0  0  0  0  0  0  0  0  0  0
    6.5263   46.4999   30.4852 C   0  0  0  0  0  0  0  0  0  0  0  0
    8.4005   47.8870   29.8335 C   0  0  0  0  0  0  0  0  0  0  0  0
    7.0180   47.6565   29.8448 C   0  0  0  0  0  0  0  0  0  0  0  0
    6.1939   48.5970   29.1994 O   0  0  0  0  0  0  0  0  0  0  0  0
    4.7631   48.5887   29.1032 C   0  0  2  0  0  0  0  0  0  0  0  0
    4.1415   48.9225   30.4688 C   0  0  0  0  0  0  0  0  0  0  0  0
    4.2510   47.3248   28.4101 C   0  0  0  0  0  0  0  0  0  0  0  0
    3.1962   46.5582   28.9772 C   0  0  0  0  0  0  0  0  0  0  0  0
    4.8484   46.8747   27.1822 C   0  0  0  0  0  0  0  0  0  0  0  0
    2.8118   45.3826   28.3467 C   0  0  0  0  0  0  0  0  0  0  0  0
    4.4219   45.6605   26.5964 C   0  0  0  0  0  0  0  0  0  0  0  0
    5.8859   47.6246   26.5274 N   0  0  0  0  0  0  0  0  0  0  0  0
    1.8317   44.4862   28.7275 O   0  0  0  0  0  0  0  0  0  0  0  0
    3.4015   44.9504   27.2103 C   0  0  0  0  0  0  0  0  0  0  0  0
    5.7642   48.9843   26.3596 O   0  0  0  0  0  0  0  0  0  0  0  0
    6.8124   47.0274   25.9414 O   0  0  0  0  0  0  0  0  0  0  0  0
    1.8066   43.4228   27.7658 C   0  0  0  0  0  0  0  0  0  0  0  0
    2.8248   43.7592   26.8137 O   0  0  0  0  0  0  0  0  0  0  0  0
    8.8118   40.1831   34.2120 O   0  0  0  0  0  0  0  0  0  0  0  0
   11.2415   40.7932   33.3699 O   0  0  0  0  0  0  0  0  0  0  0  0
   10.9186   40.6909   31.9972 C   0  0  0  0  0  0  0  0  0  0  0  0
   11.5172   39.3814   31.4407 C   0  0  0  0  0  0  0  0  0  0  0  0
   12.7493   39.0855   32.0727 O   0  0  0  0  0  0  0  0  0  0  0  0
   10.6023   38.1907   31.6665 C   0  0  0  0  0  0  0  0  0  0  0  0
   12.9319   37.6781   32.0281 C   0  0  0  0  0  0  0  0  0  0  0  0
    9.6392   38.0797   30.6452 O   0  0  0  0  0  0  0  0  0  0  0  0
   11.5715   37.0165   31.7056 C   0  0  0  0  0  0  0  0  0  0  0  0
   13.4846   37.2121   33.3235 N   0  0  0  0  0  0  0  0  0  0  0  0
   11.6187   36.3383   30.4694 O   0  0  0  0  0  0  0  0  0  0  0  0
   14.4801   36.3321   33.5724 C   0  0  0  0  0  0  0  0  0  0  0  0
   13.1137   37.6275   34.5687 C   0  0  0  0  0  0  0  0  0  0  0  0
   15.2073   35.6153   32.6738 N   0  0  0  0  0  0  0  0  0  0  0  0
   14.6759   36.2308   34.9179 C   0  0  0  0  0  0  0  0  0  0  0  0
   13.8216   37.0452   35.5780 N   0  0  0  0  0  0  0  0  0  0  0  0
   16.1640   34.7602   33.1546 C   0  0  0  0  0  0  0  0  0  0  0  0
   15.6526   35.3508   35.4129 C   0  0  0  0  0  0  0  0  0  0  0  0
   16.3794   34.6317   34.5041 N   0  0  0  0  0  0  0  0  0  0  0  0
   15.8999   35.1935   36.8088 N   0  0  0  0  0  0  0  0  0  0  0  0
    9.0099   45.4346   33.6670 H   0  0  0  0  0  0  0  0  0  0  0  0
   11.9350   45.6933   33.0930 H   0  0  0  0  0  0  0  0  0  0  0  0
   11.1132   46.1992   34.4885 H   0  0  0  0  0  0  0  0  0  0  0  0
    9.3519   43.8345   31.4758 H   0  0  0  0  0  0  0  0  0  0  0  0
   10.7311   44.8930   31.1677 H   0  0  0  0  0  0  0  0  0  0  0  0
    7.0136   44.7146   31.5816 H   0  0  0  0  0  0  0  0  0  0  0  0
   10.3465   47.1890   30.4146 H   0  0  0  0  0  0  0  0  0  0  0  0
    5.4739   46.2727   30.5156 H   0  0  0  0  0  0  0  0  0  0  0  0
    8.7946   48.7673   29.3417 H   0  0  0  0  0  0  0  0  0  0  0  0
    4.4808   49.4383   28.4468 H   0  0  0  0  0  0  0  0  0  0  0  0
    4.6117   49.8438   30.8735 H   0  0  0  0  0  0  0  0  0  0  0  0
    4.2945   48.1076   31.2038 H   0  0  0  0  0  0  0  0  0  0  0  0
    3.0538   49.1195   30.3592 H   0  0  0  0  0  0  0  0  0  0  0  0
    2.6933   46.8416   29.8900 H   0  0  0  0  0  0  0  0  0  0  0  0
    4.8607   45.2930   25.6777 H   0  0  0  0  0  0  0  0  0  0  0  0
    2.0449   42.4557   28.2561 H   0  0  0  0  0  0  0  0  0  0  0  0
    0.8155   43.3789   27.2675 H   0  0  0  0  0  0  0  0  0  0  0  0
   11.3972   41.5459   31.4735 H   0  0  0  0  0  0  0  0  0  0  0  0
    9.8300   40.7411   31.7610 H   0  0  0  0  0  0  0  0  0  0  0  0
   11.6974   39.5067   30.3480 H   0  0  0  0  0  0  0  0  0  0  0  0
   10.1076   38.2647   32.6645 H   0  0  0  0  0  0  0  0  0  0  0  0
   13.6621   37.4467   31.2208 H   0  0  0  0  0  0  0  0  0  0  0  0
    8.8975   38.6944   30.8830 H   0  0  0  0  0  0  0  0  0  0  0  0
   11.2806   36.3073   32.5170 H   0  0  0  0  0  0  0  0  0  0  0  0
   10.8492   35.7110   30.4585 H   0  0  0  0  0  0  0  0  0  0  0  0
   12.3290   38.3524   34.7444 H   0  0  0  0  0  0  0  0  0  0  0  0
   16.7559   34.1780   32.4619 H   0  0  0  0  0  0  0  0  0  0  0  0
   15.3531   35.7362   37.5137 H   0  0  0  0  0  0  0  0  0  0  0  0
   16.6344   34.5301   37.1414 H   0  0  0  0  0  0  0  0  0  0  0  0
  1  2  2  0
  1  3  1  0
  3  4  1  0
  4  5  1  0
  6  1  1  0
  7  6  1  0
  6  8  1  0
  8  9  1  0
  9 10  2  0
 11  9  1  0
 10 12  1  0
 13 11  2  0
 12 14  2  0
 14 13  1  0
 14 15  1  0
 15 16  1  0
 16 17  1  0
 16 18  1  0
 18 19  2  0
 20 18  1  0
 19 21  1  0
 22 20  2  0
 20 23  1  0
 21 24  1  0
 21 25  2  0
 25 22  1  0
 23 26  1  0
 23 27  2  0
 24 28  1  0
 25 29  1  0
 28 29  1  0
  4 30  2  0
  4 31  1  0
 32 31  1  0
 32 33  1  0
 33 34  1  0
 33 35  1  0
 34 36  1  0
 35 37  1  0
 35 38  1  0
 38 36  1  0
 36 39  1  0
 38 40  1  0
 41 39  1  0
 42 39  1  0
 43 41  2  0
 41 44  1  0
 45 42  2  0
 46 43  1  0
 44 47  2  0
 44 45  1  0
 48 46  2  0
 48 47  1  0
 47 49  1  0
  6 50  1  1
  7 51  1  0
  7 52  1  0
  8 53  1  0
  8 54  1  0
 10 55  1  0
 11 56  1  0
 12 57  1  0
 13 58  1  0
 16 59  1  6
 17 60  1  0
 17 61  1  0
 17 62  1  0
 19 63  1  0
 22 64  1  0
 28 65  1  0
 28 66  1  0
 32 67  1  0
 32 68  1  0
 33 69  1  0
 35 70  1  0
 36 71  1  0
 37 72  1  0
 38 73  1  0
 40 74  1  0
 42 75  1  0
 46 76  1  0
 49 77  1  0
 49 78  1  0
M  CHG  3   5  -1  23   1  26  -1
M  END
>  <EmbedRMS>  (386) 
0.0838078273688

$$$$

     RDKit          3D

 78 83  0  0  0  0  0  0  0  0999 V2000
   10.2834   43.7662   33.8257 C   0  0  0  0  0  0  0  0  0  0  0  0
   11.4102   43.5930   34.3752 O   0  0  0  0  0  0  0  0  0  0  0  0
    9.3635   42.7257   33.7353 O   0  0  0  0  0  0  0  0  0  0  0  0
    9.8899   41.2270   34.2948 P   0  0  0  0  0  0  0  0  0  0  0  0
   10.3732   41.4562   35.8841 O   0  0  0  0  0  0  0  0  0  0  0  0
    9.9546   45.0695   33.2035 C   0  0  1  0  0  0  0  0  0  0  0  0
   11.0274   46.0322   33.4756 N   0  0  0  0  0  0  0  0  0  0  0  0
    9.7466   44.8480   31.6876 C   0  0  0  0  0  0  0  0  0  0  0  0
    8.7924   45.8407   31.0842 C   0  0  0  0  0  0  0  0  0  0  0  0
    7.4055   45.6018   31.0995 C   0  0  0  0  0  0  0  0  0  0  0  0
    9.2823   46.9879   30.4426 C   0  0  0  0  0  0  0  0  0  0  0  0
    6.5266   46.5036   30.4846 C   0  0  0  0  0  0  0  0  0  0  0  0
    8.4033   47.8903   29.8325 C   0  0  0  0  0  0  0  0  0  0  0  0
    7.0141   47.6518   29.8456 C   0  0  0  0  0  0  0  0  0  0  0  0
    6.0892   48.5187   29.2406 O   0  0  0  0  0  0  0  0  0  0  0  0
    6.4233   49.6777   28.4719 C   0  0  2  0  0  0  0  0  0  0  0  0
    5.1445   50.4627   28.1856 C   0  0  0  0  0  0  0  0  0  0  0  0
    7.0910   49.2786   27.1664 C   0  0  0  0  0  0  0  0  0  0  0  0
    6.5523   48.1904   26.4367 C   0  0  0  0  0  0  0  0  0  0  0  0
    8.2740   49.9304   26.6824 C   0  0  0  0  0  0  0  0  0  0  0  0
    7.2152   47.7652   25.2933 C   0  0  0  0  0  0  0  0  0  0  0  0
    8.9145   49.4419   25.5212 C   0  0  0  0  0  0  0  0  0  0  0  0
    8.8262   51.0826   27.3379 N   0  0  0  0  0  0  0  0  0  0  0  0
    6.8830   46.7278   24.4435 O   0  0  0  0  0  0  0  0  0  0  0  0
    8.3492   48.3607   24.8581 C   0  0  0  0  0  0  0  0  0  0  0  0
   10.1901   51.2599   27.3736 O   0  0  0  0  0  0  0  0  0  0  0  0
    8.0871   52.0335   27.6652 O   0  0  0  0  0  0  0  0  0  0  0  0
    7.8732   46.6703   23.4077 C   0  0  0  0  0  0  0  0  0  0  0  0
    8.7903   47.7306   23.7103 O   0  0  0  0  0  0  0  0  0  0  0  0
    8.8120   40.1850   34.2133 O   0  0  0  0  0  0  0  0  0  0  0  0
   11.2403   40.7947   33.3700 O   0  0  0  0  0  0  0  0  0  0  0  0
   10.9144   40.6914   31.9982 C   0  0  0  0  0  0  0  0  0  0  0  0
   11.5270   39.3912   31.4385 C   0  0  0  0  0  0  0  0  0  0  0  0
   12.7520   39.0911   32.0836 O   0  0  0  0  0  0  0  0  0  0  0  0
   10.6113   38.1932   31.6451 C   0  0  0  0  0  0  0  0  0  0  0  0
   12.9413   37.6838   32.0297 C   0  0  0  0  0  0  0  0  0  0  0  0
    9.6064   38.0878   30.6599 O   0  0  0  0  0  0  0  0  0  0  0  0
   11.5822   37.0197   31.6877 C   0  0  0  0  0  0  0  0  0  0  0  0
   13.4840   37.2104   33.3254 N   0  0  0  0  0  0  0  0  0  0  0  0
   11.6179   36.3072   30.4690 O   0  0  0  0  0  0  0  0  0  0  0  0
   14.4797   36.3309   33.5738 C   0  0  0  0  0  0  0  0  0  0  0  0
   13.1136   37.6269   34.5702 C   0  0  0  0  0  0  0  0  0  0  0  0
   15.2074   35.6152   32.6747 N   0  0  0  0  0  0  0  0  0  0  0  0
   14.6756   36.2298   34.9190 C   0  0  0  0  0  0  0  0  0  0  0  0
   13.8217   37.0445   35.5793 N   0  0  0  0  0  0  0  0  0  0  0  0
   16.1643   34.7603   33.1551 C   0  0  0  0  0  0  0  0  0  0  0  0
   15.6528   35.3503   35.4136 C   0  0  0  0  0  0  0  0  0  0  0  0
   16.3798   34.6316   34.5046 N   0  0  0  0  0  0  0  0  0  0  0  0
   15.9004   35.1930   36.8094 N   0  0  0  0  0  0  0  0  0  0  0  0
    9.0121   45.4318   33.6713 H   0  0  0  0  0  0  0  0  0  0  0  0
   10.7260   46.9688   33.1212 H   0  0  0  0  0  0  0  0  0  0  0  0
   11.8906   45.7658   32.9469 H   0  0  0  0  0  0  0  0  0  0  0  0
    9.3414   43.8329   31.4762 H   0  0  0  0  0  0  0  0  0  0  0  0
   10.7230   44.8814   31.1555 H   0  0  0  0  0  0  0  0  0  0  0  0
    7.0083   44.7172   31.5818 H   0  0  0  0  0  0  0  0  0  0  0  0
   10.3468   47.1856   30.4129 H   0  0  0  0  0  0  0  0  0  0  0  0
    5.4621   46.3068   30.5015 H   0  0  0  0  0  0  0  0  0  0  0  0
    8.8171   48.7664   29.3547 H   0  0  0  0  0  0  0  0  0  0  0  0
    7.0800   50.3230   29.0908 H   0  0  0  0  0  0  0  0  0  0  0  0
    4.4171   49.8361   27.6264 H   0  0  0  0  0  0  0  0  0  0  0  0
    5.3737   51.3710   27.5887 H   0  0  0  0  0  0  0  0  0  0  0  0
    4.6768   50.7786   29.1422 H   0  0  0  0  0  0  0  0  0  0  0  0
    5.6572   47.6769   26.7644 H   0  0  0  0  0  0  0  0  0  0  0  0
    9.8116   49.9074   25.1340 H   0  0  0  0  0  0  0  0  0  0  0  0
    7.4029   46.8417   22.4168 H   0  0  0  0  0  0  0  0  0  0  0  0
    8.3974   45.6920   23.4314 H   0  0  0  0  0  0  0  0  0  0  0  0
   11.3776   41.5549   31.4744 H   0  0  0  0  0  0  0  0  0  0  0  0
    9.8234   40.7201   31.7654 H   0  0  0  0  0  0  0  0  0  0  0  0
   11.7311   39.5362   30.3532 H   0  0  0  0  0  0  0  0  0  0  0  0
   10.1203   38.2696   32.6410 H   0  0  0  0  0  0  0  0  0  0  0  0
   13.6850   37.4639   31.2321 H   0  0  0  0  0  0  0  0  0  0  0  0
   10.0250   38.1792   29.7654 H   0  0  0  0  0  0  0  0  0  0  0  0
   11.2757   36.3135   32.4907 H   0  0  0  0  0  0  0  0  0  0  0  0
   11.9837   36.9111   29.7708 H   0  0  0  0  0  0  0  0  0  0  0  0
   12.3307   38.3536   34.7457 H   0  0  0  0  0  0  0  0  0  0  0  0
   16.7566   34.1786   32.4623 H   0  0  0  0  0  0  0  0  0  0  0  0
   16.6353   34.5301   37.1419 H   0  0  0  0  0  0  0  0  0  0  0  0
   15.3535   35.7355   37.5144 H   0  0  0  0  0  0  0  0  0  0  0  0
  1  2  2  0
  1  3  1  0
  3  4  1  0
  4  5  1  0
  6  1  1  0
  7  6  1  0
  6  8  1  0
  8  9  1  0
  9 10  2  0
 11  9  1  0
 10 12  1  0
 13 11  2  0
 12 14  2  0
 14 13  1  0
 14 15  1  0
 15 16  1  0
 16 17  1  0
 16 18  1  0
 18 19  2  0
 20 18  1  0
 19 21  1  0
 22 20  2  0
 20 23  1  0
 21 24  1  0
 21 25  2  0
 25 22  1  0
 23 26  1  0
 23 27  2  0
 24 28  1  0
 25 29  1  0
 28 29  1  0
  4 30  2  0
  4 31  1  0
 32 31  1  0
 32 33  1  0
 33 34  1  0
 33 35  1  0
 34 36  1  0
 35 37  1  0
 35 38  1  0
 38 36  1  0
 36 39  1  0
 38 40  1  0
 41 39  1  0
 42 39  1  0
 43 41  2  0
 41 44  1  0
 45 42  2  0
 46 43  1  0
 44 47  2  0
 44 45  1  0
 48 46  2  0
 48 47  1  0
 47 49  1  0
  6 50  1  1
  7 51  1  0
  7 52  1  0
  8 53  1  0
  8 54  1  0
 10 55  1  0
 11 56  1  0
 12 57  1  0
 13 58  1  0
 16 59  1  1
 17 60  1  0
 17 61  1  0
 17 62  1  0
 19 63  1  0
 22 64  1  0
 28 65  1  0
 28 66  1  0
 32 67  1  0
 32 68  1  0
 33 69  1  0
 35 70  1  0
 36 71  1  0
 37 72  1  0
 38 73  1  0
 40 74  1  0
 42 75  1  0
 46 76  1  0
 49 77  1  0
 49 78  1  0
M  CHG  3   5  -1  23   1  26  -1
M  END
>  <EmbedRMS>  (387) 
0.0808407226413

$$$$

     RDKit          3D

 78 83  0  0  0  0  0  0  0  0999 V2000
   10.2803   43.7665   33.8250 C   0  0  0  0  0  0  0  0  0  0  0  0
   11.4110   43.5919   34.3666 O   0  0  0  0  0  0  0  0  0  0  0  0
    9.3616   42.7251   33.7348 O   0  0  0  0  0  0  0  0  0  0  0  0
    9.8896   41.2269   34.2945 P   0  0  0  0  0  0  0  0  0  0  0  0
   10.3731   41.4568   35.8837 O   0  0  0  0  0  0  0  0  0  0  0  0
    9.9460   45.0737   33.2111 C   0  0  1  0  0  0  0  0  0  0  0  0
   11.0267   46.0292   33.4708 N   0  0  0  0  0  0  0  0  0  0  0  0
    9.7541   44.8541   31.6947 C   0  0  0  0  0  0  0  0  0  0  0  0
    8.7958   45.8409   31.0844 C   0  0  0  0  0  0  0  0  0  0  0  0
    7.4091   45.6002   31.1012 C   0  0  0  0  0  0  0  0  0  0  0  0
    9.2824   46.9879   30.4399 C   0  0  0  0  0  0  0  0  0  0  0  0
    6.5255   46.4994   30.4873 C   0  0  0  0  0  0  0  0  0  0  0  0
    8.3996   47.8875   29.8320 C   0  0  0  0  0  0  0  0  0  0  0  0
    7.0182   47.6544   29.8447 C   0  0  0  0  0  0  0  0  0  0  0  0
    6.1855   48.5959   29.2178 O   0  0  0  0  0  0  0  0  0  0  0  0
    4.7736   48.4775   29.0250 C   0  0  2  0  0  0  0  0  0  0  0  0
    4.4467   47.4470   27.9376 C   0  0  0  0  0  0  0  0  0  0  0  0
    4.1621   49.8230   28.6712 C   0  0  0  0  0  0  0  0  0  0  0  0
    2.8259   50.0560   29.0805 C   0  0  0  0  0  0  0  0  0  0  0  0
    4.8720   50.8657   27.9789 C   0  0  0  0  0  0  0  0  0  0  0  0
    2.2560   51.2959   28.8254 C   0  0  0  0  0  0  0  0  0  0  0  0
    4.2422   52.1132   27.7626 C   0  0  0  0  0  0  0  0  0  0  0  0
    6.2103   50.6849   27.4904 N   0  0  0  0  0  0  0  0  0  0  0  0
    0.9852   51.7380   29.1396 O   0  0  0  0  0  0  0  0  0  0  0  0
    2.9355   52.2823   28.1984 C   0  0  0  0  0  0  0  0  0  0  0  0
    6.5173   49.6076   26.6932 O   0  0  0  0  0  0  0  0  0  0  0  0
    7.0402   51.6117   27.5944 O   0  0  0  0  0  0  0  0  0  0  0  0
    0.8610   53.0903   28.6786 C   0  0  0  0  0  0  0  0  0  0  0  0
    2.1290   53.3982   28.0837 O   0  0  0  0  0  0  0  0  0  0  0  0
    8.8122   40.1844   34.2135 O   0  0  0  0  0  0  0  0  0  0  0  0
   11.2401   40.7949   33.3698 O   0  0  0  0  0  0  0  0  0  0  0  0
   10.9143   40.6914   31.9981 C   0  0  0  0  0  0  0  0  0  0  0  0
   11.5270   39.3911   31.4385 C   0  0  0  0  0  0  0  0  0  0  0  0
   12.7519   39.0911   32.0837 O   0  0  0  0  0  0  0  0  0  0  0  0
   10.6113   38.1932   31.6451 C   0  0  0  0  0  0  0  0  0  0  0  0
   12.9413   37.6838   32.0297 C   0  0  0  0  0  0  0  0  0  0  0  0
    9.6064   38.0877   30.6599 O   0  0  0  0  0  0  0  0  0  0  0  0
   11.5822   37.0197   31.6877 C   0  0  0  0  0  0  0  0  0  0  0  0
   13.4840   37.2104   33.3254 N   0  0  0  0  0  0  0  0  0  0  0  0
   11.6179   36.3072   30.4690 O   0  0  0  0  0  0  0  0  0  0  0  0
   14.4797   36.3309   33.5738 C   0  0  0  0  0  0  0  0  0  0  0  0
   13.1137   37.6269   34.5702 C   0  0  0  0  0  0  0  0  0  0  0  0
   15.2074   35.6152   32.6747 N   0  0  0  0  0  0  0  0  0  0  0  0
   14.6756   36.2298   34.9190 C   0  0  0  0  0  0  0  0  0  0  0  0
   13.8217   37.0445   35.5793 N   0  0  0  0  0  0  0  0  0  0  0  0
   16.1643   34.7603   33.1551 C   0  0  0  0  0  0  0  0  0  0  0  0
   15.6528   35.3503   35.4136 C   0  0  0  0  0  0  0  0  0  0  0  0
   16.3798   34.6316   34.5046 N   0  0  0  0  0  0  0  0  0  0  0  0
   15.9004   35.1930   36.8094 N   0  0  0  0  0  0  0  0  0  0  0  0
    8.9995   45.4383   33.6719 H   0  0  0  0  0  0  0  0  0  0  0  0
   11.0502   46.2278   34.4981 H   0  0  0  0  0  0  0  0  0  0  0  0
   10.7766   46.9369   33.0157 H   0  0  0  0  0  0  0  0  0  0  0  0
    9.3647   43.8353   31.4710 H   0  0  0  0  0  0  0  0  0  0  0  0
   10.7413   44.9078   31.1835 H   0  0  0  0  0  0  0  0  0  0  0  0
    7.0151   44.7160   31.5872 H   0  0  0  0  0  0  0  0  0  0  0  0
   10.3462   47.1880   30.4059 H   0  0  0  0  0  0  0  0  0  0  0  0
    5.4680   46.2828   30.5255 H   0  0  0  0  0  0  0  0  0  0  0  0
    8.7917   48.7699   29.3419 H   0  0  0  0  0  0  0  0  0  0  0  0
    4.3182   48.1412   29.9822 H   0  0  0  0  0  0  0  0  0  0  0  0
    4.8145   47.7797   26.9464 H   0  0  0  0  0  0  0  0  0  0  0  0
    3.3474   47.3005   27.8739 H   0  0  0  0  0  0  0  0  0  0  0  0
    4.9112   46.4678   28.1718 H   0  0  0  0  0  0  0  0  0  0  0  0
    2.2513   49.2953   29.5943 H   0  0  0  0  0  0  0  0  0  0  0  0
    4.7513   52.9192   27.2497 H   0  0  0  0  0  0  0  0  0  0  0  0
    0.0537   53.1648   27.9201 H   0  0  0  0  0  0  0  0  0  0  0  0
    0.6632   53.7708   29.5331 H   0  0  0  0  0  0  0  0  0  0  0  0
    9.8233   40.7200   31.7652 H   0  0  0  0  0  0  0  0  0  0  0  0
   11.3775   41.5548   31.4741 H   0  0  0  0  0  0  0  0  0  0  0  0
   11.7312   39.5362   30.3532 H   0  0  0  0  0  0  0  0  0  0  0  0
   10.1203   38.2696   32.6410 H   0  0  0  0  0  0  0  0  0  0  0  0
   13.6850   37.4639   31.2321 H   0  0  0  0  0  0  0  0  0  0  0  0
   10.0251   38.1792   29.7654 H   0  0  0  0  0  0  0  0  0  0  0  0
   11.2757   36.3135   32.4907 H   0  0  0  0  0  0  0  0  0  0  0  0
   11.9838   36.9111   29.7708 H   0  0  0  0  0  0  0  0  0  0  0  0
   12.3307   38.3536   34.7458 H   0  0  0  0  0  0  0  0  0  0  0  0
   16.7566   34.1787   32.4623 H   0  0  0  0  0  0  0  0  0  0  0  0
   16.6353   34.5301   37.1419 H   0  0  0  0  0  0  0  0  0  0  0  0
   15.3535   35.7355   37.5144 H   0  0  0  0  0  0  0  0  0  0  0  0
  1  2  2  0
  1  3  1  0
  3  4  1  0
  4  5  1  0
  6  1  1  0
  7  6  1  0
  6  8  1  0
  8  9  1  0
  9 10  2  0
 11  9  1  0
 10 12  1  0
 13 11  2  0
 12 14  2  0
 14 13  1  0
 14 15  1  0
 15 16  1  0
 16 17  1  0
 16 18  1  0
 18 19  2  0
 20 18  1  0
 19 21  1  0
 22 20  2  0
 20 23  1  0
 21 24  1  0
 21 25  2  0
 25 22  1  0
 23 26  1  0
 23 27  2  0
 24 28  1  0
 25 29  1  0
 28 29  1  0
  4 30  2  0
  4 31  1  0
 32 31  1  0
 32 33  1  0
 33 34  1  0
 33 35  1  0
 34 36  1  0
 35 37  1  0
 35 38  1  0
 38 36  1  0
 36 39  1  0
 38 40  1  0
 41 39  1  0
 42 39  1  0
 43 41  2  0
 41 44  1  0
 45 42  2  0
 46 43  1  0
 44 47  2  0
 44 45  1  0
 48 46  2  0
 48 47  1  0
 47 49  1  0
  6 50  1  1
  7 51  1  0
  7 52  1  0
  8 53  1  0
  8 54  1  0
 10 55  1  0
 11 56  1  0
 12 57  1  0
 13 58  1  0
 16 59  1  1
 17 60  1  0
 17 61  1  0
 17 62  1  0
 19 63  1  0
 22 64  1  0
 28 65  1  0
 28 66  1  0
 32 67  1  0
 32 68  1  0
 33 69  1  0
 35 70  1  0
 36 71  1  0
 37 72  1  0
 38 73  1  0
 40 74  1  0
 42 75  1  0
 46 76  1  0
 49 77  1  0
 49 78  1  0
M  CHG  3   5  -1  23   1  26  -1
M  END
>  <EmbedRMS>  (388) 
0.0806382895738

$$$$

     RDKit          3D

 78 83  0  0  0  0  0  0  0  0999 V2000
   10.2827   43.7631   33.8267 C   0  0  0  0  0  0  0  0  0  0  0  0
   11.4097   43.5882   34.3747 O   0  0  0  0  0  0  0  0  0  0  0  0
    9.3631   42.7225   33.7343 O   0  0  0  0  0  0  0  0  0  0  0  0
    9.8892   41.2239   34.2947 P   0  0  0  0  0  0  0  0  0  0  0  0
   10.3716   41.4546   35.8842 O   0  0  0  0  0  0  0  0  0  0  0  0
    9.9522   45.0703   33.2057 C   0  0  1  0  0  0  0  0  0  0  0  0
   11.0159   46.0497   33.4564 N   0  0  0  0  0  0  0  0  0  0  0  0
    9.7511   44.8497   31.6916 C   0  0  0  0  0  0  0  0  0  0  0  0
    8.7962   45.8389   31.0836 C   0  0  0  0  0  0  0  0  0  0  0  0
    7.4088   45.5983   31.0997 C   0  0  0  0  0  0  0  0  0  0  0  0
    9.2862   46.9837   30.4374 C   0  0  0  0  0  0  0  0  0  0  0  0
    6.5265   46.5018   30.4921 C   0  0  0  0  0  0  0  0  0  0  0  0
    8.4037   47.8825   29.8266 C   0  0  0  0  0  0  0  0  0  0  0  0
    7.0203   47.6603   29.8611 C   0  0  0  0  0  0  0  0  0  0  0  0
    6.1753   48.6206   29.2831 O   0  0  0  0  0  0  0  0  0  0  0  0
    4.7821   48.7717   29.5801 C   0  0  2  0  0  0  0  0  0  0  0  0
    4.2128   49.8861   28.7054 C   0  0  0  0  0  0  0  0  0  0  0  0
    4.5825   49.1207   31.0483 C   0  0  0  0  0  0  0  0  0  0  0  0
    5.4972   50.0173   31.6592 C   0  0  0  0  0  0  0  0  0  0  0  0
    3.4628   48.6413   31.8084 C   0  0  0  0  0  0  0  0  0  0  0  0
    5.2894   50.3818   32.9831 C   0  0  0  0  0  0  0  0  0  0  0  0
    3.2959   49.0601   33.1487 C   0  0  0  0  0  0  0  0  0  0  0  0
    2.4754   47.7683   31.2386 N   0  0  0  0  0  0  0  0  0  0  0  0
    6.0499   51.2236   33.7726 O   0  0  0  0  0  0  0  0  0  0  0  0
    4.2357   49.9230   33.6971 C   0  0  0  0  0  0  0  0  0  0  0  0
    1.1414   47.9965   31.4939 O   0  0  0  0  0  0  0  0  0  0  0  0
    2.8140   46.6611   30.7747 O   0  0  0  0  0  0  0  0  0  0  0  0
    5.4336   51.2947   35.0684 C   0  0  0  0  0  0  0  0  0  0  0  0
    4.2783   50.4496   34.9763 O   0  0  0  0  0  0  0  0  0  0  0  0
    8.8119   40.1811   34.2152 O   0  0  0  0  0  0  0  0  0  0  0  0
   11.2392   40.7921   33.3690 O   0  0  0  0  0  0  0  0  0  0  0  0
   10.9134   40.6903   31.9968 C   0  0  0  0  0  0  0  0  0  0  0  0
   11.5240   39.3889   31.4373 C   0  0  0  0  0  0  0  0  0  0  0  0
   12.7494   39.0882   32.0792 O   0  0  0  0  0  0  0  0  0  0  0  0
   10.6084   38.1933   31.6473 C   0  0  0  0  0  0  0  0  0  0  0  0
   12.9330   37.6800   32.0293 C   0  0  0  0  0  0  0  0  0  0  0  0
    9.6120   38.0918   30.6542 O   0  0  0  0  0  0  0  0  0  0  0  0
   11.5746   37.0153   31.7018 C   0  0  0  0  0  0  0  0  0  0  0  0
   13.4842   37.2113   33.3239 N   0  0  0  0  0  0  0  0  0  0  0  0
   11.6337   36.3260   30.4734 O   0  0  0  0  0  0  0  0  0  0  0  0
   14.4801   36.3317   33.5725 C   0  0  0  0  0  0  0  0  0  0  0  0
   13.1146   37.6286   34.5688 C   0  0  0  0  0  0  0  0  0  0  0  0
   15.2085   35.6157   32.6739 N   0  0  0  0  0  0  0  0  0  0  0  0
   14.6758   36.2309   34.9183 C   0  0  0  0  0  0  0  0  0  0  0  0
   13.8222   37.0463   35.5783 N   0  0  0  0  0  0  0  0  0  0  0  0
   16.1650   34.7601   33.1551 C   0  0  0  0  0  0  0  0  0  0  0  0
   15.6519   35.3501   35.4136 C   0  0  0  0  0  0  0  0  0  0  0  0
   16.3784   34.6306   34.5048 N   0  0  0  0  0  0  0  0  0  0  0  0
   15.8996   35.1923   36.8096 N   0  0  0  0  0  0  0  0  0  0  0  0
    9.0062   45.4345   33.6656 H   0  0  0  0  0  0  0  0  0  0  0  0
   11.9310   45.6951   33.0926 H   0  0  0  0  0  0  0  0  0  0  0  0
   11.1096   46.2029   34.4872 H   0  0  0  0  0  0  0  0  0  0  0  0
    9.3506   43.8340   31.4761 H   0  0  0  0  0  0  0  0  0  0  0  0
   10.7330   44.8892   31.1687 H   0  0  0  0  0  0  0  0  0  0  0  0
    7.0139   44.7126   31.5827 H   0  0  0  0  0  0  0  0  0  0  0  0
   10.3517   47.1821   30.4060 H   0  0  0  0  0  0  0  0  0  0  0  0
    5.4673   46.2932   30.5243 H   0  0  0  0  0  0  0  0  0  0  0  0
    8.7959   48.7669   29.3406 H   0  0  0  0  0  0  0  0  0  0  0  0
    4.2565   47.8395   29.2920 H   0  0  0  0  0  0  0  0  0  0  0  0
    3.1315   50.0308   28.9249 H   0  0  0  0  0  0  0  0  0  0  0  0
    4.3206   49.6153   27.6323 H   0  0  0  0  0  0  0  0  0  0  0  0
    4.7525   50.8415   28.8856 H   0  0  0  0  0  0  0  0  0  0  0  0
    6.3407   50.4263   31.1167 H   0  0  0  0  0  0  0  0  0  0  0  0
    2.4615   48.7155   33.7463 H   0  0  0  0  0  0  0  0  0  0  0  0
    5.1274   52.3386   35.2944 H   0  0  0  0  0  0  0  0  0  0  0  0
    6.1265   50.9112   35.8447 H   0  0  0  0  0  0  0  0  0  0  0  0
    9.8219   40.7222   31.7624 H   0  0  0  0  0  0  0  0  0  0  0  0
   11.3801   41.5523   31.4734 H   0  0  0  0  0  0  0  0  0  0  0  0
   11.7241   39.5305   30.3507 H   0  0  0  0  0  0  0  0  0  0  0  0
   10.1095   38.2753   32.6390 H   0  0  0  0  0  0  0  0  0  0  0  0
   13.6654   37.4515   31.2225 H   0  0  0  0  0  0  0  0  0  0  0  0
   10.0533   38.1160   29.7658 H   0  0  0  0  0  0  0  0  0  0  0  0
   11.2744   36.3132   32.5159 H   0  0  0  0  0  0  0  0  0  0  0  0
   10.8641   35.6997   30.4619 H   0  0  0  0  0  0  0  0  0  0  0  0
   12.3334   38.3574   34.7438 H   0  0  0  0  0  0  0  0  0  0  0  0
   16.7572   34.1758   32.4636 H   0  0  0  0  0  0  0  0  0  0  0  0
   15.3535   35.7348   37.5152 H   0  0  0  0  0  0  0  0  0  0  0  0
   16.6352   34.5295   37.1414 H   0  0  0  0  0  0  0  0  0  0  0  0
  1  2  2  0
  1  3  1  0
  3  4  1  0
  4  5  1  0
  6  1  1  0
  7  6  1  0
  6  8  1  0
  8  9  1  0
  9 10  2  0
 11  9  1  0
 10 12  1  0
 13 11  2  0
 12 14  2  0
 14 13  1  0
 14 15  1  0
 15 16  1  0
 16 17  1  0
 16 18  1  0
 18 19  2  0
 20 18  1  0
 19 21  1  0
 22 20  2  0
 20 23  1  0
 21 24  1  0
 21 25  2  0
 25 22  1  0
 23 26  1  0
 23 27  2  0
 24 28  1  0
 25 29  1  0
 28 29  1  0
  4 30  2  0
  4 31  1  0
 32 31  1  0
 32 33  1  0
 33 34  1  0
 33 35  1  0
 34 36  1  0
 35 37  1  0
 35 38  1  0
 38 36  1  0
 36 39  1  0
 38 40  1  0
 41 39  1  0
 42 39  1  0
 43 41  2  0
 41 44  1  0
 45 42  2  0
 46 43  1  0
 44 47  2  0
 44 45  1  0
 48 46  2  0
 48 47  1  0
 47 49  1  0
  6 50  1  1
  7 51  1  0
  7 52  1  0
  8 53  1  0
  8 54  1  0
 10 55  1  0
 11 56  1  0
 12 57  1  0
 13 58  1  0
 16 59  1  6
 17 60  1  0
 17 61  1  0
 17 62  1  0
 19 63  1  0
 22 64  1  0
 28 65  1  0
 28 66  1  0
 32 67  1  0
 32 68  1  0
 33 69  1  0
 35 70  1  0
 36 71  1  0
 37 72  1  0
 38 73  1  0
 40 74  1  0
 42 75  1  0
 46 76  1  0
 49 77  1  0
 49 78  1  0
M  CHG  3   5  -1  23   1  26  -1
M  END
>  <EmbedRMS>  (389) 
0.0830478975073

$$$$

     RDKit          3D

 78 83  0  0  0  0  0  0  0  0999 V2000
   10.2839   43.7627   33.8277 C   0  0  0  0  0  0  0  0  0  0  0  0
   11.4104   43.5862   34.3766 O   0  0  0  0  0  0  0  0  0  0  0  0
    9.3629   42.7238   33.7357 O   0  0  0  0  0  0  0  0  0  0  0  0
    9.8893   41.2251   34.2943 P   0  0  0  0  0  0  0  0  0  0  0  0
   10.3730   41.4545   35.8836 O   0  0  0  0  0  0  0  0  0  0  0  0
    9.9550   45.0700   33.2067 C   0  0  1  0  0  0  0  0  0  0  0  0
   11.0200   46.0481   33.4573 N   0  0  0  0  0  0  0  0  0  0  0  0
    9.7505   44.8514   31.6927 C   0  0  0  0  0  0  0  0  0  0  0  0
    8.7944   45.8426   31.0883 C   0  0  0  0  0  0  0  0  0  0  0  0
    7.4082   45.6003   31.0995 C   0  0  0  0  0  0  0  0  0  0  0  0
    9.2825   46.9887   30.4443 C   0  0  0  0  0  0  0  0  0  0  0  0
    6.5265   46.4989   30.4836 C   0  0  0  0  0  0  0  0  0  0  0  0
    8.4007   47.8863   29.8312 C   0  0  0  0  0  0  0  0  0  0  0  0
    7.0181   47.6581   29.8482 C   0  0  0  0  0  0  0  0  0  0  0  0
    6.1873   48.5985   29.2075 O   0  0  0  0  0  0  0  0  0  0  0  0
    4.7616   48.7364   29.3305 C   0  0  2  0  0  0  0  0  0  0  0  0
    4.3568   48.8447   30.8150 C   0  0  0  0  0  0  0  0  0  0  0  0
    3.9815   47.6673   28.5601 C   0  0  0  0  0  0  0  0  0  0  0  0
    4.6747   46.6804   27.8086 C   0  0  0  0  0  0  0  0  0  0  0  0
    2.5438   47.6422   28.5621 C   0  0  0  0  0  0  0  0  0  0  0  0
    3.9443   45.6784   27.1843 C   0  0  0  0  0  0  0  0  0  0  0  0
    1.8559   46.5861   27.9221 C   0  0  0  0  0  0  0  0  0  0  0  0
    1.7727   48.6919   29.1642 N   0  0  0  0  0  0  0  0  0  0  0  0
    4.4119   44.6175   26.4326 O   0  0  0  0  0  0  0  0  0  0  0  0
    2.5957   45.6271   27.2473 C   0  0  0  0  0  0  0  0  0  0  0  0
    2.0242   50.0036   28.8356 O   0  0  0  0  0  0  0  0  0  0  0  0
    0.7294   48.4171   29.7922 O   0  0  0  0  0  0  0  0  0  0  0  0
    3.2808   43.8498   25.9993 C   0  0  0  0  0  0  0  0  0  0  0  0
    2.1406   44.5305   26.5408 O   0  0  0  0  0  0  0  0  0  0  0  0
    8.8112   40.1835   34.2130 O   0  0  0  0  0  0  0  0  0  0  0  0
   11.2397   40.7942   33.3684 O   0  0  0  0  0  0  0  0  0  0  0  0
   10.9125   40.6875   31.9969 C   0  0  0  0  0  0  0  0  0  0  0  0
   11.5169   39.3810   31.4420 C   0  0  0  0  0  0  0  0  0  0  0  0
   12.7500   39.0880   32.0758 O   0  0  0  0  0  0  0  0  0  0  0  0
   10.6043   38.1892   31.6658 C   0  0  0  0  0  0  0  0  0  0  0  0
   12.9395   37.6813   32.0279 C   0  0  0  0  0  0  0  0  0  0  0  0
    9.6353   38.0951   30.6499 O   0  0  0  0  0  0  0  0  0  0  0  0
   11.5804   37.0191   31.6934 C   0  0  0  0  0  0  0  0  0  0  0  0
   13.4851   37.2119   33.3244 N   0  0  0  0  0  0  0  0  0  0  0  0
   11.6118   36.3188   30.4673 O   0  0  0  0  0  0  0  0  0  0  0  0
   14.4801   36.3316   33.5732 C   0  0  0  0  0  0  0  0  0  0  0  0
   13.1139   37.6277   34.5692 C   0  0  0  0  0  0  0  0  0  0  0  0
   15.2076   35.6154   32.6744 N   0  0  0  0  0  0  0  0  0  0  0  0
   14.6756   36.2303   34.9186 C   0  0  0  0  0  0  0  0  0  0  0  0
   13.8215   37.0451   35.5786 N   0  0  0  0  0  0  0  0  0  0  0  0
   16.1642   34.7602   33.1551 C   0  0  0  0  0  0  0  0  0  0  0  0
   15.6526   35.3505   35.4134 C   0  0  0  0  0  0  0  0  0  0  0  0
   16.3796   34.6316   34.5045 N   0  0  0  0  0  0  0  0  0  0  0  0
   15.9001   35.1933   36.8093 N   0  0  0  0  0  0  0  0  0  0  0  0
    9.0100   45.4349   33.6674 H   0  0  0  0  0  0  0  0  0  0  0  0
   11.9350   45.6933   33.0930 H   0  0  0  0  0  0  0  0  0  0  0  0
   11.1135   46.1992   34.4886 H   0  0  0  0  0  0  0  0  0  0  0  0
    9.3516   43.8348   31.4761 H   0  0  0  0  0  0  0  0  0  0  0  0
   10.7308   44.8935   31.1678 H   0  0  0  0  0  0  0  0  0  0  0  0
    7.0137   44.7100   31.5738 H   0  0  0  0  0  0  0  0  0  0  0  0
   10.3466   47.1884   30.4133 H   0  0  0  0  0  0  0  0  0  0  0  0
    5.4746   46.2604   30.4828 H   0  0  0  0  0  0  0  0  0  0  0  0
    8.7945   48.7667   29.3394 H   0  0  0  0  0  0  0  0  0  0  0  0
    4.5187   49.7098   28.8563 H   0  0  0  0  0  0  0  0  0  0  0  0
    4.0898   47.8578   31.2439 H   0  0  0  0  0  0  0  0  0  0  0  0
    5.1870   49.2818   31.4095 H   0  0  0  0  0  0  0  0  0  0  0  0
    3.4845   49.5173   30.9393 H   0  0  0  0  0  0  0  0  0  0  0  0
    5.7499   46.6765   27.7063 H   0  0  0  0  0  0  0  0  0  0  0  0
    0.7744   46.5379   27.9196 H   0  0  0  0  0  0  0  0  0  0  0  0
    3.3390   42.8178   26.4044 H   0  0  0  0  0  0  0  0  0  0  0  0
    3.2280   43.8360   24.8905 H   0  0  0  0  0  0  0  0  0  0  0  0
   11.3811   41.5456   31.4692 H   0  0  0  0  0  0  0  0  0  0  0  0
    9.8216   40.7222   31.7644 H   0  0  0  0  0  0  0  0  0  0  0  0
   11.6985   39.5089   30.3498 H   0  0  0  0  0  0  0  0  0  0  0  0
   10.1109   38.2736   32.6629 H   0  0  0  0  0  0  0  0  0  0  0  0
   13.6783   37.4561   31.2271 H   0  0  0  0  0  0  0  0  0  0  0  0
    9.0020   37.3859   30.9347 H   0  0  0  0  0  0  0  0  0  0  0  0
   11.2807   36.3052   32.4921 H   0  0  0  0  0  0  0  0  0  0  0  0
   11.8818   36.9599   29.7584 H   0  0  0  0  0  0  0  0  0  0  0  0
   12.3303   38.3538   34.7445 H   0  0  0  0  0  0  0  0  0  0  0  0
   16.7563   34.1783   32.4624 H   0  0  0  0  0  0  0  0  0  0  0  0
   16.6347   34.5301   37.1418 H   0  0  0  0  0  0  0  0  0  0  0  0
   15.3532   35.7359   37.5142 H   0  0  0  0  0  0  0  0  0  0  0  0
  1  2  2  0
  1  3  1  0
  3  4  1  0
  4  5  1  0
  6  1  1  0
  7  6  1  0
  6  8  1  0
  8  9  1  0
  9 10  2  0
 11  9  1  0
 10 12  1  0
 13 11  2  0
 12 14  2  0
 14 13  1  0
 14 15  1  0
 15 16  1  0
 16 17  1  0
 16 18  1  0
 18 19  2  0
 20 18  1  0
 19 21  1  0
 22 20  2  0
 20 23  1  0
 21 24  1  0
 21 25  2  0
 25 22  1  0
 23 26  1  0
 23 27  2  0
 24 28  1  0
 25 29  1  0
 28 29  1  0
  4 30  2  0
  4 31  1  0
 32 31  1  0
 32 33  1  0
 33 34  1  0
 33 35  1  0
 34 36  1  0
 35 37  1  0
 35 38  1  0
 38 36  1  0
 36 39  1  0
 38 40  1  0
 41 39  1  0
 42 39  1  0
 43 41  2  0
 41 44  1  0
 45 42  2  0
 46 43  1  0
 44 47  2  0
 44 45  1  0
 48 46  2  0
 48 47  1  0
 47 49  1  0
  6 50  1  1
  7 51  1  0
  7 52  1  0
  8 53  1  0
  8 54  1  0
 10 55  1  0
 11 56  1  0
 12 57  1  0
 13 58  1  0
 16 59  1  6
 17 60  1  0
 17 61  1  0
 17 62  1  0
 19 63  1  0
 22 64  1  0
 28 65  1  0
 28 66  1  0
 32 67  1  0
 32 68  1  0
 33 69  1  0
 35 70  1  0
 36 71  1  0
 37 72  1  0
 38 73  1  0
 40 74  1  0
 42 75  1  0
 46 76  1  0
 49 77  1  0
 49 78  1  0
M  CHG  3   5  -1  23   1  26  -1
M  END
>  <EmbedRMS>  (390) 
0.0824314323064

$$$$

     RDKit          3D

 78 83  0  0  0  0  0  0  0  0999 V2000
   10.2837   43.7627   33.8274 C   0  0  0  0  0  0  0  0  0  0  0  0
   11.4101   43.5864   34.3766 O   0  0  0  0  0  0  0  0  0  0  0  0
    9.3628   42.7237   33.7355 O   0  0  0  0  0  0  0  0  0  0  0  0
    9.8891   41.2252   34.2949 P   0  0  0  0  0  0  0  0  0  0  0  0
   10.3725   41.4550   35.8843 O   0  0  0  0  0  0  0  0  0  0  0  0
    9.9547   45.0700   33.2060 C   0  0  1  0  0  0  0  0  0  0  0  0
   11.0197   46.0480   33.4565 N   0  0  0  0  0  0  0  0  0  0  0  0
    9.7497   44.8510   31.6919 C   0  0  0  0  0  0  0  0  0  0  0  0
    8.7938   45.8419   31.0863 C   0  0  0  0  0  0  0  0  0  0  0  0
    7.4055   45.6018   31.1016 C   0  0  0  0  0  0  0  0  0  0  0  0
    9.2835   46.9909   30.4451 C   0  0  0  0  0  0  0  0  0  0  0  0
    6.5254   46.5036   30.4867 C   0  0  0  0  0  0  0  0  0  0  0  0
    8.4020   47.8914   29.8354 C   0  0  0  0  0  0  0  0  0  0  0  0
    7.0222   47.6453   29.8431 C   0  0  0  0  0  0  0  0  0  0  0  0
    6.1468   48.5444   29.2269 O   0  0  0  0  0  0  0  0  0  0  0  0
    5.7648   48.4589   27.8500 C   0  0  2  0  0  0  0  0  0  0  0  0
    4.8410   47.2574   27.6040 C   0  0  0  0  0  0  0  0  0  0  0  0
    6.9830   48.4898   26.9319 C   0  0  0  0  0  0  0  0  0  0  0  0
    7.6908   47.2906   26.6559 C   0  0  0  0  0  0  0  0  0  0  0  0
    7.4376   49.7159   26.3400 C   0  0  0  0  0  0  0  0  0  0  0  0
    8.7654   47.3385   25.7785 C   0  0  0  0  0  0  0  0  0  0  0  0
    8.5261   49.6981   25.4375 C   0  0  0  0  0  0  0  0  0  0  0  0
    6.8392   50.9786   26.6739 N   0  0  0  0  0  0  0  0  0  0  0  0
    9.5819   46.3037   25.3646 O   0  0  0  0  0  0  0  0  0  0  0  0
    9.1605   48.4893   25.1890 C   0  0  0  0  0  0  0  0  0  0  0  0
    6.6083   51.3053   27.9903 O   0  0  0  0  0  0  0  0  0  0  0  0
    6.7336   51.8688   25.8050 O   0  0  0  0  0  0  0  0  0  0  0  0
   10.5513   46.8420   24.4550 C   0  0  0  0  0  0  0  0  0  0  0  0
   10.2462   48.2408   24.3714 O   0  0  0  0  0  0  0  0  0  0  0  0
    8.8112   40.1834   34.2133 O   0  0  0  0  0  0  0  0  0  0  0  0
   11.2397   40.7937   33.3702 O   0  0  0  0  0  0  0  0  0  0  0  0
   10.9143   40.6911   31.9983 C   0  0  0  0  0  0  0  0  0  0  0  0
   11.5268   39.3911   31.4385 C   0  0  0  0  0  0  0  0  0  0  0  0
   12.7519   39.0911   32.0835 O   0  0  0  0  0  0  0  0  0  0  0  0
   10.6113   38.1930   31.6450 C   0  0  0  0  0  0  0  0  0  0  0  0
   12.9412   37.6838   32.0297 C   0  0  0  0  0  0  0  0  0  0  0  0
    9.6064   38.0877   30.6598 O   0  0  0  0  0  0  0  0  0  0  0  0
   11.5822   37.0196   31.6877 C   0  0  0  0  0  0  0  0  0  0  0  0
   13.4840   37.2105   33.3254 N   0  0  0  0  0  0  0  0  0  0  0  0
   11.6180   36.3070   30.4691 O   0  0  0  0  0  0  0  0  0  0  0  0
   14.4797   36.3310   33.5737 C   0  0  0  0  0  0  0  0  0  0  0  0
   13.1135   37.6269   34.5702 C   0  0  0  0  0  0  0  0  0  0  0  0
   15.2074   35.6153   32.6746 N   0  0  0  0  0  0  0  0  0  0  0  0
   14.6756   36.2298   34.9190 C   0  0  0  0  0  0  0  0  0  0  0  0
   13.8216   37.0445   35.5793 N   0  0  0  0  0  0  0  0  0  0  0  0
   16.1644   34.7603   33.1550 C   0  0  0  0  0  0  0  0  0  0  0  0
   15.6528   35.3504   35.4135 C   0  0  0  0  0  0  0  0  0  0  0  0
   16.3799   34.6317   34.5045 N   0  0  0  0  0  0  0  0  0  0  0  0
   15.9005   35.1933   36.8094 N   0  0  0  0  0  0  0  0  0  0  0  0
    9.0098   45.4350   33.6667 H   0  0  0  0  0  0  0  0  0  0  0  0
   11.9346   45.6932   33.0919 H   0  0  0  0  0  0  0  0  0  0  0  0
   11.1135   46.1989   34.4878 H   0  0  0  0  0  0  0  0  0  0  0  0
    9.3501   43.8345   31.4759 H   0  0  0  0  0  0  0  0  0  0  0  0
   10.7298   44.8923   31.1667 H   0  0  0  0  0  0  0  0  0  0  0  0
    7.0089   44.7181   31.5861 H   0  0  0  0  0  0  0  0  0  0  0  0
   10.3474   47.1914   30.4168 H   0  0  0  0  0  0  0  0  0  0  0  0
    5.4601   46.3129   30.5079 H   0  0  0  0  0  0  0  0  0  0  0  0
    8.7915   48.7758   29.3473 H   0  0  0  0  0  0  0  0  0  0  0  0
    5.1310   49.3428   27.6311 H   0  0  0  0  0  0  0  0  0  0  0  0
    4.5695   47.1982   26.5284 H   0  0  0  0  0  0  0  0  0  0  0  0
    5.3136   46.3031   27.9111 H   0  0  0  0  0  0  0  0  0  0  0  0
    3.9085   47.3797   28.1950 H   0  0  0  0  0  0  0  0  0  0  0  0
    7.4221   46.3465   27.1078 H   0  0  0  0  0  0  0  0  0  0  0  0
    8.8883   50.6061   24.9725 H   0  0  0  0  0  0  0  0  0  0  0  0
   11.5764   46.6966   24.8559 H   0  0  0  0  0  0  0  0  0  0  0  0
   10.4473   46.3668   23.4570 H   0  0  0  0  0  0  0  0  0  0  0  0
    9.8233   40.7201   31.7650 H   0  0  0  0  0  0  0  0  0  0  0  0
   11.3779   41.5548   31.4750 H   0  0  0  0  0  0  0  0  0  0  0  0
   11.7310   39.5362   30.3532 H   0  0  0  0  0  0  0  0  0  0  0  0
   10.1202   38.2694   32.6409 H   0  0  0  0  0  0  0  0  0  0  0  0
   13.6849   37.4637   31.2322 H   0  0  0  0  0  0  0  0  0  0  0  0
   10.0250   38.1792   29.7653 H   0  0  0  0  0  0  0  0  0  0  0  0
   11.2758   36.3134   32.4908 H   0  0  0  0  0  0  0  0  0  0  0  0
   11.9838   36.9108   29.7707 H   0  0  0  0  0  0  0  0  0  0  0  0
   12.3303   38.3534   34.7458 H   0  0  0  0  0  0  0  0  0  0  0  0
   16.7567   34.1788   32.4622 H   0  0  0  0  0  0  0  0  0  0  0  0
   16.6353   34.5302   37.1418 H   0  0  0  0  0  0  0  0  0  0  0  0
   15.3535   35.7356   37.5144 H   0  0  0  0  0  0  0  0  0  0  0  0
  1  2  2  0
  1  3  1  0
  3  4  1  0
  4  5  1  0
  6  1  1  0
  7  6  1  0
  6  8  1  0
  8  9  1  0
  9 10  2  0
 11  9  1  0
 10 12  1  0
 13 11  2  0
 12 14  2  0
 14 13  1  0
 14 15  1  0
 15 16  1  0
 16 17  1  0
 16 18  1  0
 18 19  2  0
 20 18  1  0
 19 21  1  0
 22 20  2  0
 20 23  1  0
 21 24  1  0
 21 25  2  0
 25 22  1  0
 23 26  1  0
 23 27  2  0
 24 28  1  0
 25 29  1  0
 28 29  1  0
  4 30  2  0
  4 31  1  0
 32 31  1  0
 32 33  1  0
 33 34  1  0
 33 35  1  0
 34 36  1  0
 35 37  1  0
 35 38  1  0
 38 36  1  0
 36 39  1  0
 38 40  1  0
 41 39  1  0
 42 39  1  0
 43 41  2  0
 41 44  1  0
 45 42  2  0
 46 43  1  0
 44 47  2  0
 44 45  1  0
 48 46  2  0
 48 47  1  0
 47 49  1  0
  6 50  1  1
  7 51  1  0
  7 52  1  0
  8 53  1  0
  8 54  1  0
 10 55  1  0
 11 56  1  0
 12 57  1  0
 13 58  1  0
 16 59  1  6
 17 60  1  0
 17 61  1  0
 17 62  1  0
 19 63  1  0
 22 64  1  0
 28 65  1  0
 28 66  1  0
 32 67  1  0
 32 68  1  0
 33 69  1  0
 35 70  1  0
 36 71  1  0
 37 72  1  0
 38 73  1  0
 40 74  1  0
 42 75  1  0
 46 76  1  0
 49 77  1  0
 49 78  1  0
M  CHG  3   5  -1  23   1  26  -1
M  END
>  <EmbedRMS>  (391) 
0.0818504731057

$$$$

     RDKit          3D

 78 83  0  0  0  0  0  0  0  0999 V2000
   10.2805   43.7663   33.8250 C   0  0  0  0  0  0  0  0  0  0  0  0
   11.4111   43.5918   34.3668 O   0  0  0  0  0  0  0  0  0  0  0  0
    9.3621   42.7247   33.7344 O   0  0  0  0  0  0  0  0  0  0  0  0
    9.8903   41.2264   34.2936 P   0  0  0  0  0  0  0  0  0  0  0  0
   10.3732   41.4564   35.8831 O   0  0  0  0  0  0  0  0  0  0  0  0
    9.9459   45.0735   33.2113 C   0  0  1  0  0  0  0  0  0  0  0  0
   11.0267   46.0291   33.4707 N   0  0  0  0  0  0  0  0  0  0  0  0
    9.7535   44.8539   31.6951 C   0  0  0  0  0  0  0  0  0  0  0  0
    8.7955   45.8412   31.0852 C   0  0  0  0  0  0  0  0  0  0  0  0
    7.4090   45.6003   31.1006 C   0  0  0  0  0  0  0  0  0  0  0  0
    9.2827   46.9874   30.4397 C   0  0  0  0  0  0  0  0  0  0  0  0
    6.5287   46.5005   30.4847 C   0  0  0  0  0  0  0  0  0  0  0  0
    8.4026   47.8888   29.8293 C   0  0  0  0  0  0  0  0  0  0  0  0
    7.0127   47.6525   29.8491 C   0  0  0  0  0  0  0  0  0  0  0  0
    6.0799   48.5157   29.2500 O   0  0  0  0  0  0  0  0  0  0  0  0
    6.3651   49.7888   28.6644 C   0  0  2  0  0  0  0  0  0  0  0  0
    6.6450   50.8298   29.7567 C   0  0  0  0  0  0  0  0  0  0  0  0
    5.1761   50.2137   27.8213 C   0  0  0  0  0  0  0  0  0  0  0  0
    3.9101   50.3344   28.4474 C   0  0  0  0  0  0  0  0  0  0  0  0
    5.2989   50.5337   26.4284 C   0  0  0  0  0  0  0  0  0  0  0  0
    2.8388   50.8008   27.6967 C   0  0  0  0  0  0  0  0  0  0  0  0
    4.1769   51.0199   25.7194 C   0  0  0  0  0  0  0  0  0  0  0  0
    6.5307   50.3436   25.7187 N   0  0  0  0  0  0  0  0  0  0  0  0
    1.5329   51.0056   28.0985 O   0  0  0  0  0  0  0  0  0  0  0  0
    2.9680   51.1349   26.3922 C   0  0  0  0  0  0  0  0  0  0  0  0
    7.1241   49.1023   25.7034 O   0  0  0  0  0  0  0  0  0  0  0  0
    6.9185   51.2075   24.9054 O   0  0  0  0  0  0  0  0  0  0  0  0
    0.7959   51.5002   26.9720 C   0  0  0  0  0  0  0  0  0  0  0  0
    1.7502   51.5673   25.9035 O   0  0  0  0  0  0  0  0  0  0  0  0
    8.8128   40.1841   34.2125 O   0  0  0  0  0  0  0  0  0  0  0  0
   11.2416   40.7945   33.3692 O   0  0  0  0  0  0  0  0  0  0  0  0
   10.9178   40.6904   31.9968 C   0  0  0  0  0  0  0  0  0  0  0  0
   11.5181   39.3813   31.4408 C   0  0  0  0  0  0  0  0  0  0  0  0
   12.7497   39.0870   32.0746 O   0  0  0  0  0  0  0  0  0  0  0  0
   10.6045   38.1891   31.6655 C   0  0  0  0  0  0  0  0  0  0  0  0
   12.9344   37.6801   32.0290 C   0  0  0  0  0  0  0  0  0  0  0  0
    9.6418   38.0758   30.6441 O   0  0  0  0  0  0  0  0  0  0  0  0
   11.5741   37.0170   31.7045 C   0  0  0  0  0  0  0  0  0  0  0  0
   13.4851   37.2126   33.3241 N   0  0  0  0  0  0  0  0  0  0  0  0
   11.6079   36.3407   30.4680 O   0  0  0  0  0  0  0  0  0  0  0  0
   14.4801   36.3321   33.5727 C   0  0  0  0  0  0  0  0  0  0  0  0
   13.1140   37.6277   34.5693 C   0  0  0  0  0  0  0  0  0  0  0  0
   15.2073   35.6155   32.6739 N   0  0  0  0  0  0  0  0  0  0  0  0
   14.6758   36.2306   34.9182 C   0  0  0  0  0  0  0  0  0  0  0  0
   13.8217   37.0451   35.5785 N   0  0  0  0  0  0  0  0  0  0  0  0
   16.1639   34.7602   33.1546 C   0  0  0  0  0  0  0  0  0  0  0  0
   15.6526   35.3506   35.4130 C   0  0  0  0  0  0  0  0  0  0  0  0
   16.3794   34.6316   34.5041 N   0  0  0  0  0  0  0  0  0  0  0  0
   15.9000   35.1933   36.8089 N   0  0  0  0  0  0  0  0  0  0  0  0
    8.9996   45.4380   33.6725 H   0  0  0  0  0  0  0  0  0  0  0  0
   11.0505   46.2277   34.4981 H   0  0  0  0  0  0  0  0  0  0  0  0
   10.7764   46.9368   33.0157 H   0  0  0  0  0  0  0  0  0  0  0  0
   10.7406   44.9070   31.1836 H   0  0  0  0  0  0  0  0  0  0  0  0
    9.3635   43.8352   31.4716 H   0  0  0  0  0  0  0  0  0  0  0  0
    7.0133   44.7157   31.5842 H   0  0  0  0  0  0  0  0  0  0  0  0
   10.3471   47.1846   30.4048 H   0  0  0  0  0  0  0  0  0  0  0  0
    5.4645   46.3023   30.5036 H   0  0  0  0  0  0  0  0  0  0  0  0
    8.8206   48.7564   29.3407 H   0  0  0  0  0  0  0  0  0  0  0  0
    7.2724   49.7145   28.0376 H   0  0  0  0  0  0  0  0  0  0  0  0
    6.7837   51.8334   29.3007 H   0  0  0  0  0  0  0  0  0  0  0  0
    7.5707   50.5728   30.3109 H   0  0  0  0  0  0  0  0  0  0  0  0
    5.8095   50.8752   30.4863 H   0  0  0  0  0  0  0  0  0  0  0  0
    3.7675   50.0841   29.4908 H   0  0  0  0  0  0  0  0  0  0  0  0
    4.2415   51.2730   24.6689 H   0  0  0  0  0  0  0  0  0  0  0  0
    0.3934   52.5116   27.1904 H   0  0  0  0  0  0  0  0  0  0  0  0
   -0.0232   50.7979   26.7106 H   0  0  0  0  0  0  0  0  0  0  0  0
   11.3944   41.5458   31.4719 H   0  0  0  0  0  0  0  0  0  0  0  0
    9.8289   40.7385   31.7615 H   0  0  0  0  0  0  0  0  0  0  0  0
   11.6994   39.5068   30.3484 H   0  0  0  0  0  0  0  0  0  0  0  0
   10.1090   38.2634   32.6632 H   0  0  0  0  0  0  0  0  0  0  0  0
   13.6662   37.4515   31.2224 H   0  0  0  0  0  0  0  0  0  0  0  0
    8.9008   38.6923   30.8794 H   0  0  0  0  0  0  0  0  0  0  0  0
   11.2650   36.3083   32.5087 H   0  0  0  0  0  0  0  0  0  0  0  0
   12.1372   35.5141   30.6163 H   0  0  0  0  0  0  0  0  0  0  0  0
   12.3297   38.3530   34.7450 H   0  0  0  0  0  0  0  0  0  0  0  0
   16.7558   34.1781   32.4619 H   0  0  0  0  0  0  0  0  0  0  0  0
   15.3533   35.7360   37.5138 H   0  0  0  0  0  0  0  0  0  0  0  0
   16.6346   34.5300   37.1414 H   0  0  0  0  0  0  0  0  0  0  0  0
  1  2  2  0
  1  3  1  0
  3  4  1  0
  4  5  1  0
  6  1  1  0
  7  6  1  0
  6  8  1  0
  8  9  1  0
  9 10  2  0
 11  9  1  0
 10 12  1  0
 13 11  2  0
 12 14  2  0
 14 13  1  0
 14 15  1  0
 15 16  1  0
 16 17  1  0
 16 18  1  0
 18 19  2  0
 20 18  1  0
 19 21  1  0
 22 20  2  0
 20 23  1  0
 21 24  1  0
 21 25  2  0
 25 22  1  0
 23 26  1  0
 23 27  2  0
 24 28  1  0
 25 29  1  0
 28 29  1  0
  4 30  2  0
  4 31  1  0
 32 31  1  0
 32 33  1  0
 33 34  1  0
 33 35  1  0
 34 36  1  0
 35 37  1  0
 35 38  1  0
 38 36  1  0
 36 39  1  0
 38 40  1  0
 41 39  1  0
 42 39  1  0
 43 41  2  0
 41 44  1  0
 45 42  2  0
 46 43  1  0
 44 47  2  0
 44 45  1  0
 48 46  2  0
 48 47  1  0
 47 49  1  0
  6 50  1  1
  7 51  1  0
  7 52  1  0
  8 53  1  0
  8 54  1  0
 10 55  1  0
 11 56  1  0
 12 57  1  0
 13 58  1  0
 16 59  1  6
 17 60  1  0
 17 61  1  0
 17 62  1  0
 19 63  1  0
 22 64  1  0
 28 65  1  0
 28 66  1  0
 32 67  1  0
 32 68  1  0
 33 69  1  0
 35 70  1  0
 36 71  1  0
 37 72  1  0
 38 73  1  0
 40 74  1  0
 42 75  1  0
 46 76  1  0
 49 77  1  0
 49 78  1  0
M  CHG  3   5  -1  23   1  26  -1
M  END
>  <EmbedRMS>  (392) 
0.0826444620776

$$$$

     RDKit          3D

 78 83  0  0  0  0  0  0  0  0999 V2000
   10.2835   43.7630   33.8276 C   0  0  0  0  0  0  0  0  0  0  0  0
   11.4101   43.5868   34.3766 O   0  0  0  0  0  0  0  0  0  0  0  0
    9.3632   42.7236   33.7351 O   0  0  0  0  0  0  0  0  0  0  0  0
    9.8899   41.2248   34.2939 P   0  0  0  0  0  0  0  0  0  0  0  0
   10.3723   41.4546   35.8836 O   0  0  0  0  0  0  0  0  0  0  0  0
    9.9542   45.0704   33.2064 C   0  0  1  0  0  0  0  0  0  0  0  0
   11.0189   46.0487   33.4571 N   0  0  0  0  0  0  0  0  0  0  0  0
    9.7501   44.8515   31.6923 C   0  0  0  0  0  0  0  0  0  0  0  0
    8.7941   45.8420   31.0866 C   0  0  0  0  0  0  0  0  0  0  0  0
    7.4063   45.5990   31.0985 C   0  0  0  0  0  0  0  0  0  0  0  0
    9.2836   46.9893   30.4417 C   0  0  0  0  0  0  0  0  0  0  0  0
    6.5265   46.4993   30.4820 C   0  0  0  0  0  0  0  0  0  0  0  0
    8.4020   47.8884   29.8293 C   0  0  0  0  0  0  0  0  0  0  0  0
    7.0212   47.6538   29.8581 C   0  0  0  0  0  0  0  0  0  0  0  0
    6.1434   48.5493   29.2425 O   0  0  0  0  0  0  0  0  0  0  0  0
    5.4884   49.6231   29.9256 C   0  0  2  0  0  0  0  0  0  0  0  0
    6.4553   50.7777   30.2088 C   0  0  0  0  0  0  0  0  0  0  0  0
    4.6871   49.1252   31.1282 C   0  0  0  0  0  0  0  0  0  0  0  0
    3.3375   48.7599   30.8933 C   0  0  0  0  0  0  0  0  0  0  0  0
    5.2381   48.9168   32.4401 C   0  0  0  0  0  0  0  0  0  0  0  0
    2.5963   48.2233   31.9380 C   0  0  0  0  0  0  0  0  0  0  0  0
    4.4380   48.3641   33.4626 C   0  0  0  0  0  0  0  0  0  0  0  0
    6.5839   49.2681   32.7642 N   0  0  0  0  0  0  0  0  0  0  0  0
    1.2804   47.8022   31.9298 O   0  0  0  0  0  0  0  0  0  0  0  0
    3.1237   48.0329   33.1681 C   0  0  0  0  0  0  0  0  0  0  0  0
    6.8361   50.5274   33.2559 O   0  0  0  0  0  0  0  0  0  0  0  0
    7.4136   48.3623   32.9822 O   0  0  0  0  0  0  0  0  0  0  0  0
    0.9627   47.3184   33.2420 C   0  0  0  0  0  0  0  0  0  0  0  0
    2.1680   47.4839   34.0012 O   0  0  0  0  0  0  0  0  0  0  0  0
    8.8119   40.1832   34.2120 O   0  0  0  0  0  0  0  0  0  0  0  0
   11.2415   40.7934   33.3699 O   0  0  0  0  0  0  0  0  0  0  0  0
   10.9186   40.6909   31.9972 C   0  0  0  0  0  0  0  0  0  0  0  0
   11.5172   39.3814   31.4407 C   0  0  0  0  0  0  0  0  0  0  0  0
   12.7493   39.0855   32.0728 O   0  0  0  0  0  0  0  0  0  0  0  0
   10.6023   38.1907   31.6665 C   0  0  0  0  0  0  0  0  0  0  0  0
   12.9319   37.6781   32.0281 C   0  0  0  0  0  0  0  0  0  0  0  0
    9.6392   38.0797   30.6452 O   0  0  0  0  0  0  0  0  0  0  0  0
   11.5715   37.0165   31.7056 C   0  0  0  0  0  0  0  0  0  0  0  0
   13.4847   37.2121   33.3235 N   0  0  0  0  0  0  0  0  0  0  0  0
   11.6187   36.3383   30.4694 O   0  0  0  0  0  0  0  0  0  0  0  0
   14.4801   36.3320   33.5724 C   0  0  0  0  0  0  0  0  0  0  0  0
   13.1137   37.6275   34.5687 C   0  0  0  0  0  0  0  0  0  0  0  0
   15.2073   35.6153   32.6738 N   0  0  0  0  0  0  0  0  0  0  0  0
   14.6759   36.2308   34.9179 C   0  0  0  0  0  0  0  0  0  0  0  0
   13.8216   37.0452   35.5781 N   0  0  0  0  0  0  0  0  0  0  0  0
   16.1640   34.7602   33.1546 C   0  0  0  0  0  0  0  0  0  0  0  0
   15.6526   35.3508   35.4129 C   0  0  0  0  0  0  0  0  0  0  0  0
   16.3794   34.6317   34.5041 N   0  0  0  0  0  0  0  0  0  0  0  0
   15.8999   35.1935   36.8088 N   0  0  0  0  0  0  0  0  0  0  0  0
    9.0089   45.4354   33.6666 H   0  0  0  0  0  0  0  0  0  0  0  0
   11.1117   46.2004   34.4884 H   0  0  0  0  0  0  0  0  0  0  0  0
   11.9342   45.6940   33.0935 H   0  0  0  0  0  0  0  0  0  0  0  0
    9.3514   43.8348   31.4760 H   0  0  0  0  0  0  0  0  0  0  0  0
   10.7306   44.8934   31.1679 H   0  0  0  0  0  0  0  0  0  0  0  0
    7.0102   44.7130   31.5790 H   0  0  0  0  0  0  0  0  0  0  0  0
   10.3478   47.1876   30.4095 H   0  0  0  0  0  0  0  0  0  0  0  0
    5.4621   46.3025   30.4942 H   0  0  0  0  0  0  0  0  0  0  0  0
    8.7919   48.7675   29.3325 H   0  0  0  0  0  0  0  0  0  0  0  0
    4.7607   50.0480   29.1990 H   0  0  0  0  0  0  0  0  0  0  0  0
    6.7444   51.2601   29.2508 H   0  0  0  0  0  0  0  0  0  0  0  0
    7.3891   50.4234   30.6866 H   0  0  0  0  0  0  0  0  0  0  0  0
    5.9673   51.5435   30.8483 H   0  0  0  0  0  0  0  0  0  0  0  0
    2.8806   48.8736   29.9183 H   0  0  0  0  0  0  0  0  0  0  0  0
    4.8338   48.2022   34.4572 H   0  0  0  0  0  0  0  0  0  0  0  0
    0.6819   46.2452   33.1981 H   0  0  0  0  0  0  0  0  0  0  0  0
    0.1440   47.9224   33.6863 H   0  0  0  0  0  0  0  0  0  0  0  0
   11.3972   41.5460   31.4734 H   0  0  0  0  0  0  0  0  0  0  0  0
    9.8300   40.7411   31.7610 H   0  0  0  0  0  0  0  0  0  0  0  0
   11.6974   39.5067   30.3480 H   0  0  0  0  0  0  0  0  0  0  0  0
   10.1076   38.2647   32.6645 H   0  0  0  0  0  0  0  0  0  0  0  0
   13.6621   37.4467   31.2208 H   0  0  0  0  0  0  0  0  0  0  0  0
    8.8974   38.6943   30.8831 H   0  0  0  0  0  0  0  0  0  0  0  0
   11.2806   36.3073   32.5170 H   0  0  0  0  0  0  0  0  0  0  0  0
   10.8492   35.7110   30.4586 H   0  0  0  0  0  0  0  0  0  0  0  0
   12.3290   38.3524   34.7444 H   0  0  0  0  0  0  0  0  0  0  0  0
   16.7560   34.1780   32.4620 H   0  0  0  0  0  0  0  0  0  0  0  0
   16.6344   34.5301   37.1414 H   0  0  0  0  0  0  0  0  0  0  0  0
   15.3531   35.7362   37.5137 H   0  0  0  0  0  0  0  0  0  0  0  0
  1  2  2  0
  1  3  1  0
  3  4  1  0
  4  5  1  0
  6  1  1  0
  7  6  1  0
  6  8  1  0
  8  9  1  0
  9 10  2  0
 11  9  1  0
 10 12  1  0
 13 11  2  0
 12 14  2  0
 14 13  1  0
 14 15  1  0
 15 16  1  0
 16 17  1  0
 16 18  1  0
 18 19  2  0
 20 18  1  0
 19 21  1  0
 22 20  2  0
 20 23  1  0
 21 24  1  0
 21 25  2  0
 25 22  1  0
 23 26  1  0
 23 27  2  0
 24 28  1  0
 25 29  1  0
 28 29  1  0
  4 30  2  0
  4 31  1  0
 32 31  1  0
 32 33  1  0
 33 34  1  0
 33 35  1  0
 34 36  1  0
 35 37  1  0
 35 38  1  0
 38 36  1  0
 36 39  1  0
 38 40  1  0
 41 39  1  0
 42 39  1  0
 43 41  2  0
 41 44  1  0
 45 42  2  0
 46 43  1  0
 44 47  2  0
 44 45  1  0
 48 46  2  0
 48 47  1  0
 47 49  1  0
  6 50  1  1
  7 51  1  0
  7 52  1  0
  8 53  1  0
  8 54  1  0
 10 55  1  0
 11 56  1  0
 12 57  1  0
 13 58  1  0
 16 59  1  6
 17 60  1  0
 17 61  1  0
 17 62  1  0
 19 63  1  0
 22 64  1  0
 28 65  1  0
 28 66  1  0
 32 67  1  0
 32 68  1  0
 33 69  1  0
 35 70  1  0
 36 71  1  0
 37 72  1  0
 38 73  1  0
 40 74  1  0
 42 75  1  0
 46 76  1  0
 49 77  1  0
 49 78  1  0
M  CHG  3   5  -1  23   1  26  -1
M  END
>  <EmbedRMS>  (393) 
0.0839446193165

$$$$

     RDKit          3D

 78 83  0  0  0  0  0  0  0  0999 V2000
   10.2803   43.7665   33.8247 C   0  0  0  0  0  0  0  0  0  0  0  0
   11.4111   43.5918   34.3661 O   0  0  0  0  0  0  0  0  0  0  0  0
    9.3618   42.7250   33.7340 O   0  0  0  0  0  0  0  0  0  0  0  0
    9.8902   41.2266   34.2929 P   0  0  0  0  0  0  0  0  0  0  0  0
   10.3745   41.4566   35.8820 O   0  0  0  0  0  0  0  0  0  0  0  0
    9.9460   45.0738   33.2111 C   0  0  1  0  0  0  0  0  0  0  0  0
   11.0269   46.0292   33.4711 N   0  0  0  0  0  0  0  0  0  0  0  0
    9.7546   44.8547   31.6947 C   0  0  0  0  0  0  0  0  0  0  0  0
    8.7960   45.8414   31.0847 C   0  0  0  0  0  0  0  0  0  0  0  0
    7.4094   45.5997   31.1013 C   0  0  0  0  0  0  0  0  0  0  0  0
    9.2822   46.9881   30.4388 C   0  0  0  0  0  0  0  0  0  0  0  0
    6.5262   46.4982   30.4868 C   0  0  0  0  0  0  0  0  0  0  0  0
    8.3990   47.8874   29.8305 C   0  0  0  0  0  0  0  0  0  0  0  0
    7.0174   47.6549   29.8483 C   0  0  0  0  0  0  0  0  0  0  0  0
    6.1768   48.5928   29.2268 O   0  0  0  0  0  0  0  0  0  0  0  0
    4.7470   48.5414   29.2114 C   0  0  2  0  0  0  0  0  0  0  0  0
    4.2279   49.6117   28.2544 C   0  0  0  0  0  0  0  0  0  0  0  0
    4.1759   48.7792   30.6004 C   0  0  0  0  0  0  0  0  0  0  0  0
    4.8055   49.7304   31.4417 C   0  0  0  0  0  0  0  0  0  0  0  0
    2.9667   48.1477   31.0435 C   0  0  0  0  0  0  0  0  0  0  0  0
    4.2361   50.0034   32.6785 C   0  0  0  0  0  0  0  0  0  0  0  0
    2.4242   48.4783   32.3049 C   0  0  0  0  0  0  0  0  0  0  0  0
    2.2668   47.1996   30.2270 N   0  0  0  0  0  0  0  0  0  0  0  0
    4.6772   50.8778   33.6533 O   0  0  0  0  0  0  0  0  0  0  0  0
    3.0956   49.4045   33.0916 C   0  0  0  0  0  0  0  0  0  0  0  0
    0.9005   47.2948   30.1021 O   0  0  0  0  0  0  0  0  0  0  0  0
    2.8300   46.1425   29.8780 O   0  0  0  0  0  0  0  0  0  0  0  0
    3.7546   50.8202   34.7498 C   0  0  0  0  0  0  0  0  0  0  0  0
    2.7595   49.8682   34.3491 O   0  0  0  0  0  0  0  0  0  0  0  0
    8.8125   40.1844   34.2129 O   0  0  0  0  0  0  0  0  0  0  0  0
   11.2403   40.7948   33.3666 O   0  0  0  0  0  0  0  0  0  0  0  0
   10.9132   40.6866   31.9951 C   0  0  0  0  0  0  0  0  0  0  0  0
   11.5165   39.3786   31.4403 C   0  0  0  0  0  0  0  0  0  0  0  0
   12.7485   39.0849   32.0735 O   0  0  0  0  0  0  0  0  0  0  0  0
   10.6039   38.1884   31.6667 C   0  0  0  0  0  0  0  0  0  0  0  0
   12.9330   37.6776   32.0283 C   0  0  0  0  0  0  0  0  0  0  0  0
    9.6374   38.0936   30.6483 O   0  0  0  0  0  0  0  0  0  0  0  0
   11.5738   37.0141   31.7054 C   0  0  0  0  0  0  0  0  0  0  0  0
   13.4852   37.2120   33.3238 N   0  0  0  0  0  0  0  0  0  0  0  0
   11.6213   36.3379   30.4682 O   0  0  0  0  0  0  0  0  0  0  0  0
   14.4804   36.3319   33.5728 C   0  0  0  0  0  0  0  0  0  0  0  0
   13.1139   37.6275   34.5690 C   0  0  0  0  0  0  0  0  0  0  0  0
   15.2077   35.6152   32.6741 N   0  0  0  0  0  0  0  0  0  0  0  0
   14.6759   36.2306   34.9183 C   0  0  0  0  0  0  0  0  0  0  0  0
   13.8216   37.0451   35.5784 N   0  0  0  0  0  0  0  0  0  0  0  0
   16.1642   34.7599   33.1551 C   0  0  0  0  0  0  0  0  0  0  0  0
   15.6526   35.3505   35.4133 C   0  0  0  0  0  0  0  0  0  0  0  0
   16.3793   34.6313   34.5045 N   0  0  0  0  0  0  0  0  0  0  0  0
   15.9001   35.1931   36.8092 N   0  0  0  0  0  0  0  0  0  0  0  0
    8.9996   45.4384   33.6721 H   0  0  0  0  0  0  0  0  0  0  0  0
   11.0503   46.2275   34.4985 H   0  0  0  0  0  0  0  0  0  0  0  0
   10.7772   46.9369   33.0158 H   0  0  0  0  0  0  0  0  0  0  0  0
    9.3661   43.8358   31.4704 H   0  0  0  0  0  0  0  0  0  0  0  0
   10.7420   44.9094   31.1840 H   0  0  0  0  0  0  0  0  0  0  0  0
    7.0154   44.7151   31.5866 H   0  0  0  0  0  0  0  0  0  0  0  0
   10.3460   47.1882   30.4038 H   0  0  0  0  0  0  0  0  0  0  0  0
    5.4687   46.2822   30.5180 H   0  0  0  0  0  0  0  0  0  0  0  0
    8.7903   48.7702   29.3411 H   0  0  0  0  0  0  0  0  0  0  0  0
    4.4403   47.5611   28.7982 H   0  0  0  0  0  0  0  0  0  0  0  0
    3.1186   49.5751   28.2023 H   0  0  0  0  0  0  0  0  0  0  0  0
    4.5431   50.6227   28.5910 H   0  0  0  0  0  0  0  0  0  0  0  0
    4.6337   49.4337   27.2361 H   0  0  0  0  0  0  0  0  0  0  0  0
    5.7041   50.2514   31.1371 H   0  0  0  0  0  0  0  0  0  0  0  0
    1.5122   48.0180   32.6629 H   0  0  0  0  0  0  0  0  0  0  0  0
    4.2711   50.4708   35.6685 H   0  0  0  0  0  0  0  0  0  0  0  0
    3.2895   51.8151   34.9133 H   0  0  0  0  0  0  0  0  0  0  0  0
   11.3829   41.5434   31.4663 H   0  0  0  0  0  0  0  0  0  0  0  0
    9.8224   40.7231   31.7624 H   0  0  0  0  0  0  0  0  0  0  0  0
   11.6977   39.5035   30.3478 H   0  0  0  0  0  0  0  0  0  0  0  0
   10.1083   38.2788   32.6624 H   0  0  0  0  0  0  0  0  0  0  0  0
   13.6640   37.4474   31.2213 H   0  0  0  0  0  0  0  0  0  0  0  0
    8.9763   37.4190   30.9532 H   0  0  0  0  0  0  0  0  0  0  0  0
   11.2822   36.3056   32.5171 H   0  0  0  0  0  0  0  0  0  0  0  0
   10.8661   35.6935   30.4651 H   0  0  0  0  0  0  0  0  0  0  0  0
   12.3294   38.3526   34.7447 H   0  0  0  0  0  0  0  0  0  0  0  0
   16.7565   34.1779   32.4626 H   0  0  0  0  0  0  0  0  0  0  0  0
   16.6346   34.5296   37.1416 H   0  0  0  0  0  0  0  0  0  0  0  0
   15.3534   35.7357   37.5141 H   0  0  0  0  0  0  0  0  0  0  0  0
  1  2  2  0
  1  3  1  0
  3  4  1  0
  4  5  1  0
  6  1  1  0
  7  6  1  0
  6  8  1  0
  8  9  1  0
  9 10  2  0
 11  9  1  0
 10 12  1  0
 13 11  2  0
 12 14  2  0
 14 13  1  0
 14 15  1  0
 15 16  1  0
 16 17  1  0
 16 18  1  0
 18 19  2  0
 20 18  1  0
 19 21  1  0
 22 20  2  0
 20 23  1  0
 21 24  1  0
 21 25  2  0
 25 22  1  0
 23 26  1  0
 23 27  2  0
 24 28  1  0
 25 29  1  0
 28 29  1  0
  4 30  2  0
  4 31  1  0
 32 31  1  0
 32 33  1  0
 33 34  1  0
 33 35  1  0
 34 36  1  0
 35 37  1  0
 35 38  1  0
 38 36  1  0
 36 39  1  0
 38 40  1  0
 41 39  1  0
 42 39  1  0
 43 41  2  0
 41 44  1  0
 45 42  2  0
 46 43  1  0
 44 47  2  0
 44 45  1  0
 48 46  2  0
 48 47  1  0
 47 49  1  0
  6 50  1  1
  7 51  1  0
  7 52  1  0
  8 53  1  0
  8 54  1  0
 10 55  1  0
 11 56  1  0
 12 57  1  0
 13 58  1  0
 16 59  1  6
 17 60  1  0
 17 61  1  0
 17 62  1  0
 19 63  1  0
 22 64  1  0
 28 65  1  0
 28 66  1  0
 32 67  1  0
 32 68  1  0
 33 69  1  0
 35 70  1  0
 36 71  1  0
 37 72  1  0
 38 73  1  0
 40 74  1  0
 42 75  1  0
 46 76  1  0
 49 77  1  0
 49 78  1  0
M  CHG  3   5  -1  23   1  26  -1
M  END
>  <EmbedRMS>  (394) 
0.0823267749162

$$$$

     RDKit          3D

 78 83  0  0  0  0  0  0  0  0999 V2000
   10.2836   43.7661   33.8257 C   0  0  0  0  0  0  0  0  0  0  0  0
   11.4103   43.5930   34.3754 O   0  0  0  0  0  0  0  0  0  0  0  0
    9.3640   42.7253   33.7348 O   0  0  0  0  0  0  0  0  0  0  0  0
    9.8907   41.2264   34.2939 P   0  0  0  0  0  0  0  0  0  0  0  0
   10.3733   41.4558   35.8835 O   0  0  0  0  0  0  0  0  0  0  0  0
    9.9547   45.0694   33.2037 C   0  0  1  0  0  0  0  0  0  0  0  0
   11.0274   46.0321   33.4757 N   0  0  0  0  0  0  0  0  0  0  0  0
    9.7465   44.8481   31.6879 C   0  0  0  0  0  0  0  0  0  0  0  0
    8.7922   45.8410   31.0850 C   0  0  0  0  0  0  0  0  0  0  0  0
    7.4058   45.6014   31.0988 C   0  0  0  0  0  0  0  0  0  0  0  0
    9.2820   46.9873   30.4421 C   0  0  0  0  0  0  0  0  0  0  0  0
    6.5273   46.5026   30.4829 C   0  0  0  0  0  0  0  0  0  0  0  0
    8.4034   47.8895   29.8304 C   0  0  0  0  0  0  0  0  0  0  0  0
    7.0132   47.6545   29.8488 C   0  0  0  0  0  0  0  0  0  0  0  0
    6.0819   48.5187   29.2492 O   0  0  0  0  0  0  0  0  0  0  0  0
    6.3608   49.8048   28.6940 C   0  0  2  0  0  0  0  0  0  0  0  0
    6.6638   50.8303   29.7952 C   0  0  0  0  0  0  0  0  0  0  0  0
    5.1917   50.2521   27.8303 C   0  0  0  0  0  0  0  0  0  0  0  0
    5.4378   50.4968   26.4557 C   0  0  0  0  0  0  0  0  0  0  0  0
    3.8701   50.4762   28.3506 C   0  0  0  0  0  0  0  0  0  0  0  0
    4.3964   50.9612   25.6632 C   0  0  0  0  0  0  0  0  0  0  0  0
    2.8545   50.9638   27.4972 C   0  0  0  0  0  0  0  0  0  0  0  0
    3.5427   50.2331   29.7256 N   0  0  0  0  0  0  0  0  0  0  0  0
    4.4131   51.2670   24.3159 O   0  0  0  0  0  0  0  0  0  0  0  0
    3.1605   51.1876   26.1624 C   0  0  0  0  0  0  0  0  0  0  0  0
    3.6854   48.9729   30.2559 O   0  0  0  0  0  0  0  0  0  0  0  0
    2.8876   51.0828   30.3635 O   0  0  0  0  0  0  0  0  0  0  0  0
    3.1010   51.7133   23.9473 C   0  0  0  0  0  0  0  0  0  0  0  0
    2.3326   51.6473   25.1563 O   0  0  0  0  0  0  0  0  0  0  0  0
    8.8126   40.1847   34.2122 O   0  0  0  0  0  0  0  0  0  0  0  0
   11.2418   40.7942   33.3694 O   0  0  0  0  0  0  0  0  0  0  0  0
   10.9179   40.6904   31.9970 C   0  0  0  0  0  0  0  0  0  0  0  0
   11.5181   39.3814   31.4408 C   0  0  0  0  0  0  0  0  0  0  0  0
   12.7497   39.0870   32.0745 O   0  0  0  0  0  0  0  0  0  0  0  0
   10.6045   38.1891   31.6655 C   0  0  0  0  0  0  0  0  0  0  0  0
   12.9344   37.6801   32.0290 C   0  0  0  0  0  0  0  0  0  0  0  0
    9.6418   38.0758   30.6441 O   0  0  0  0  0  0  0  0  0  0  0  0
   11.5741   37.0170   31.7045 C   0  0  0  0  0  0  0  0  0  0  0  0
   13.4851   37.2125   33.3241 N   0  0  0  0  0  0  0  0  0  0  0  0
   11.6079   36.3407   30.4680 O   0  0  0  0  0  0  0  0  0  0  0  0
   14.4801   36.3321   33.5727 C   0  0  0  0  0  0  0  0  0  0  0  0
   13.1140   37.6277   34.5693 C   0  0  0  0  0  0  0  0  0  0  0  0
   15.2073   35.6155   32.6739 N   0  0  0  0  0  0  0  0  0  0  0  0
   14.6758   36.2306   34.9182 C   0  0  0  0  0  0  0  0  0  0  0  0
   13.8217   37.0451   35.5785 N   0  0  0  0  0  0  0  0  0  0  0  0
   16.1639   34.7602   33.1546 C   0  0  0  0  0  0  0  0  0  0  0  0
   15.6526   35.3506   35.4130 C   0  0  0  0  0  0  0  0  0  0  0  0
   16.3794   34.6316   34.5041 N   0  0  0  0  0  0  0  0  0  0  0  0
   15.9001   35.1933   36.8089 N   0  0  0  0  0  0  0  0  0  0  0  0
    9.0121   45.4316   33.6717 H   0  0  0  0  0  0  0  0  0  0  0  0
   11.8906   45.7658   32.9471 H   0  0  0  0  0  0  0  0  0  0  0  0
   10.7259   46.9687   33.1214 H   0  0  0  0  0  0  0  0  0  0  0  0
    9.3413   43.8330   31.4764 H   0  0  0  0  0  0  0  0  0  0  0  0
   10.7229   44.8814   31.1558 H   0  0  0  0  0  0  0  0  0  0  0  0
    7.0085   44.7163   31.5803 H   0  0  0  0  0  0  0  0  0  0  0  0
   10.3469   47.1827   30.4091 H   0  0  0  0  0  0  0  0  0  0  0  0
    5.4628   46.3055   30.5005 H   0  0  0  0  0  0  0  0  0  0  0  0
    8.8228   48.7553   29.3401 H   0  0  0  0  0  0  0  0  0  0  0  0
    7.2641   49.7259   28.0512 H   0  0  0  0  0  0  0  0  0  0  0  0
    7.6269   50.5925   30.2907 H   0  0  0  0  0  0  0  0  0  0  0  0
    5.8760   50.8323   30.5745 H   0  0  0  0  0  0  0  0  0  0  0  0
    6.7462   51.8485   29.3584 H   0  0  0  0  0  0  0  0  0  0  0  0
    6.4149   50.3428   26.0154 H   0  0  0  0  0  0  0  0  0  0  0  0
    1.8526   51.1471   27.8638 H   0  0  0  0  0  0  0  0  0  0  0  0
    2.6671   51.0383   23.1801 H   0  0  0  0  0  0  0  0  0  0  0  0
    3.1413   52.7586   23.5755 H   0  0  0  0  0  0  0  0  0  0  0  0
    9.8290   40.7385   31.7617 H   0  0  0  0  0  0  0  0  0  0  0  0
   11.3945   41.5458   31.4722 H   0  0  0  0  0  0  0  0  0  0  0  0
   11.6994   39.5069   30.3484 H   0  0  0  0  0  0  0  0  0  0  0  0
   10.1090   38.2635   32.6632 H   0  0  0  0  0  0  0  0  0  0  0  0
   13.6662   37.4514   31.2224 H   0  0  0  0  0  0  0  0  0  0  0  0
    8.9009   38.6925   30.8793 H   0  0  0  0  0  0  0  0  0  0  0  0
   11.2650   36.3083   32.5087 H   0  0  0  0  0  0  0  0  0  0  0  0
   12.1372   35.5140   30.6163 H   0  0  0  0  0  0  0  0  0  0  0  0
   12.3297   38.3530   34.7450 H   0  0  0  0  0  0  0  0  0  0  0  0
   16.7558   34.1781   32.4619 H   0  0  0  0  0  0  0  0  0  0  0  0
   16.6346   34.5300   37.1414 H   0  0  0  0  0  0  0  0  0  0  0  0
   15.3533   35.7360   37.5138 H   0  0  0  0  0  0  0  0  0  0  0  0
  1  2  2  0
  1  3  1  0
  3  4  1  0
  4  5  1  0
  6  1  1  0
  7  6  1  0
  6  8  1  0
  8  9  1  0
  9 10  2  0
 11  9  1  0
 10 12  1  0
 13 11  2  0
 12 14  2  0
 14 13  1  0
 14 15  1  0
 15 16  1  0
 16 17  1  0
 16 18  1  0
 18 19  2  0
 20 18  1  0
 19 21  1  0
 22 20  2  0
 20 23  1  0
 21 24  1  0
 21 25  2  0
 25 22  1  0
 23 26  1  0
 23 27  2  0
 24 28  1  0
 25 29  1  0
 28 29  1  0
  4 30  2  0
  4 31  1  0
 32 31  1  0
 32 33  1  0
 33 34  1  0
 33 35  1  0
 34 36  1  0
 35 37  1  0
 35 38  1  0
 38 36  1  0
 36 39  1  0
 38 40  1  0
 41 39  1  0
 42 39  1  0
 43 41  2  0
 41 44  1  0
 45 42  2  0
 46 43  1  0
 44 47  2  0
 44 45  1  0
 48 46  2  0
 48 47  1  0
 47 49  1  0
  6 50  1  1
  7 51  1  0
  7 52  1  0
  8 53  1  0
  8 54  1  0
 10 55  1  0
 11 56  1  0
 12 57  1  0
 13 58  1  0
 16 59  1  6
 17 60  1  0
 17 61  1  0
 17 62  1  0
 19 63  1  0
 22 64  1  0
 28 65  1  0
 28 66  1  0
 32 67  1  0
 32 68  1  0
 33 69  1  0
 35 70  1  0
 36 71  1  0
 37 72  1  0
 38 73  1  0
 40 74  1  0
 42 75  1  0
 46 76  1  0
 49 77  1  0
 49 78  1  0
M  CHG  3   5  -1  23   1  26  -1
M  END
>  <EmbedRMS>  (395) 
0.0828159287932

$$$$

     RDKit          3D

 78 83  0  0  0  0  0  0  0  0999 V2000
   10.2836   43.7661   33.8257 C   0  0  0  0  0  0  0  0  0  0  0  0
   11.4103   43.5930   34.3753 O   0  0  0  0  0  0  0  0  0  0  0  0
    9.3641   42.7252   33.7347 O   0  0  0  0  0  0  0  0  0  0  0  0
    9.8908   41.2264   34.2939 P   0  0  0  0  0  0  0  0  0  0  0  0
   10.3732   41.4558   35.8836 O   0  0  0  0  0  0  0  0  0  0  0  0
    9.9547   45.0694   33.2037 C   0  0  1  0  0  0  0  0  0  0  0  0
   11.0274   46.0321   33.4757 N   0  0  0  0  0  0  0  0  0  0  0  0
    9.7466   44.8480   31.6878 C   0  0  0  0  0  0  0  0  0  0  0  0
    8.7923   45.8408   31.0847 C   0  0  0  0  0  0  0  0  0  0  0  0
    7.4058   45.6014   31.0989 C   0  0  0  0  0  0  0  0  0  0  0  0
    9.2820   46.9875   30.4424 C   0  0  0  0  0  0  0  0  0  0  0  0
    6.5273   46.5029   30.4835 C   0  0  0  0  0  0  0  0  0  0  0  0
    8.4034   47.8898   29.8310 C   0  0  0  0  0  0  0  0  0  0  0  0
    7.0132   47.6539   29.8479 C   0  0  0  0  0  0  0  0  0  0  0  0
    6.0819   48.5162   29.2450 O   0  0  0  0  0  0  0  0  0  0  0  0
    6.3747   49.7642   28.6094 C   0  0  2  0  0  0  0  0  0  0  0  0
    6.6322   50.8293   29.6871 C   0  0  0  0  0  0  0  0  0  0  0  0
    5.2358   50.0894   27.6437 C   0  0  0  0  0  0  0  0  0  0  0  0
    4.4918   51.2979   27.7528 C   0  0  0  0  0  0  0  0  0  0  0  0
    4.8672   49.1449   26.6212 C   0  0  0  0  0  0  0  0  0  0  0  0
    3.4310   51.5110   26.8828 C   0  0  0  0  0  0  0  0  0  0  0  0
    3.7664   49.4146   25.7771 C   0  0  0  0  0  0  0  0  0  0  0  0
    5.5740   47.9055   26.4386 N   0  0  0  0  0  0  0  0  0  0  0  0
    2.5824   52.5995   26.8163 O   0  0  0  0  0  0  0  0  0  0  0  0
    3.0819   50.6090   25.9398 C   0  0  0  0  0  0  0  0  0  0  0  0
    4.8866   46.7780   26.0520 O   0  0  0  0  0  0  0  0  0  0  0  0
    6.8214   47.8808   26.4252 O   0  0  0  0  0  0  0  0  0  0  0  0
    1.6405   52.3628   25.7612 C   0  0  0  0  0  0  0  0  0  0  0  0
    1.9955   51.0800   25.2279 O   0  0  0  0  0  0  0  0  0  0  0  0
    8.8127   40.1847   34.2122 O   0  0  0  0  0  0  0  0  0  0  0  0
   11.2421   40.7941   33.3697 O   0  0  0  0  0  0  0  0  0  0  0  0
   10.9187   40.6911   31.9971 C   0  0  0  0  0  0  0  0  0  0  0  0
   11.5172   39.3815   31.4408 C   0  0  0  0  0  0  0  0  0  0  0  0
   12.7493   39.0856   32.0728 O   0  0  0  0  0  0  0  0  0  0  0  0
   10.6023   38.1908   31.6665 C   0  0  0  0  0  0  0  0  0  0  0  0
   12.9319   37.6781   32.0281 C   0  0  0  0  0  0  0  0  0  0  0  0
    9.6392   38.0798   30.6452 O   0  0  0  0  0  0  0  0  0  0  0  0
   11.5715   37.0165   31.7056 C   0  0  0  0  0  0  0  0  0  0  0  0
   13.4847   37.2121   33.3235 N   0  0  0  0  0  0  0  0  0  0  0  0
   11.6187   36.3384   30.4695 O   0  0  0  0  0  0  0  0  0  0  0  0
   14.4801   36.3321   33.5724 C   0  0  0  0  0  0  0  0  0  0  0  0
   13.1137   37.6276   34.5687 C   0  0  0  0  0  0  0  0  0  0  0  0
   15.2073   35.6153   32.6738 N   0  0  0  0  0  0  0  0  0  0  0  0
   14.6759   36.2308   34.9179 C   0  0  0  0  0  0  0  0  0  0  0  0
   13.8216   37.0452   35.5781 N   0  0  0  0  0  0  0  0  0  0  0  0
   16.1640   34.7602   33.1546 C   0  0  0  0  0  0  0  0  0  0  0  0
   15.6526   35.3508   35.4129 C   0  0  0  0  0  0  0  0  0  0  0  0
   16.3794   34.6317   34.5041 N   0  0  0  0  0  0  0  0  0  0  0  0
   15.8999   35.1935   36.8088 N   0  0  0  0  0  0  0  0  0  0  0  0
    9.0121   45.4316   33.6716 H   0  0  0  0  0  0  0  0  0  0  0  0
   11.8906   45.7658   32.9469 H   0  0  0  0  0  0  0  0  0  0  0  0
   10.7259   46.9687   33.1214 H   0  0  0  0  0  0  0  0  0  0  0  0
    9.3414   43.8329   31.4763 H   0  0  0  0  0  0  0  0  0  0  0  0
   10.7229   44.8813   31.1557 H   0  0  0  0  0  0  0  0  0  0  0  0
    7.0085   44.7163   31.5804 H   0  0  0  0  0  0  0  0  0  0  0  0
   10.3468   47.1838   30.4111 H   0  0  0  0  0  0  0  0  0  0  0  0
    5.4629   46.3052   30.5000 H   0  0  0  0  0  0  0  0  0  0  0  0
    8.8224   48.7597   29.3475 H   0  0  0  0  0  0  0  0  0  0  0  0
    7.2977   49.6830   28.0001 H   0  0  0  0  0  0  0  0  0  0  0  0
    7.4718   50.5208   30.3430 H   0  0  0  0  0  0  0  0  0  0  0  0
    5.7332   50.9620   30.3261 H   0  0  0  0  0  0  0  0  0  0  0  0
    6.9134   51.7960   29.2179 H   0  0  0  0  0  0  0  0  0  0  0  0
    4.7071   52.0571   28.4897 H   0  0  0  0  0  0  0  0  0  0  0  0
    3.4644   48.7190   25.0048 H   0  0  0  0  0  0  0  0  0  0  0  0
    1.7369   53.1435   24.9778 H   0  0  0  0  0  0  0  0  0  0  0  0
    0.6075   52.3366   26.1671 H   0  0  0  0  0  0  0  0  0  0  0  0
   11.3968   41.5460   31.4728 H   0  0  0  0  0  0  0  0  0  0  0  0
    9.8299   40.7409   31.7613 H   0  0  0  0  0  0  0  0  0  0  0  0
   11.6975   39.5067   30.3481 H   0  0  0  0  0  0  0  0  0  0  0  0
   10.1077   38.2647   32.6645 H   0  0  0  0  0  0  0  0  0  0  0  0
   13.6621   37.4467   31.2209 H   0  0  0  0  0  0  0  0  0  0  0  0
    8.8975   38.6944   30.8831 H   0  0  0  0  0  0  0  0  0  0  0  0
   11.2806   36.3073   32.5170 H   0  0  0  0  0  0  0  0  0  0  0  0
   10.8492   35.7110   30.4586 H   0  0  0  0  0  0  0  0  0  0  0  0
   12.3290   38.3524   34.7444 H   0  0  0  0  0  0  0  0  0  0  0  0
   16.7559   34.1780   32.4619 H   0  0  0  0  0  0  0  0  0  0  0  0
   15.3531   35.7362   37.5137 H   0  0  0  0  0  0  0  0  0  0  0  0
   16.6344   34.5301   37.1414 H   0  0  0  0  0  0  0  0  0  0  0  0
  1  2  2  0
  1  3  1  0
  3  4  1  0
  4  5  1  0
  6  1  1  0
  7  6  1  0
  6  8  1  0
  8  9  1  0
  9 10  2  0
 11  9  1  0
 10 12  1  0
 13 11  2  0
 12 14  2  0
 14 13  1  0
 14 15  1  0
 15 16  1  0
 16 17  1  0
 16 18  1  0
 18 19  2  0
 20 18  1  0
 19 21  1  0
 22 20  2  0
 20 23  1  0
 21 24  1  0
 21 25  2  0
 25 22  1  0
 23 26  1  0
 23 27  2  0
 24 28  1  0
 25 29  1  0
 28 29  1  0
  4 30  2  0
  4 31  1  0
 32 31  1  0
 32 33  1  0
 33 34  1  0
 33 35  1  0
 34 36  1  0
 35 37  1  0
 35 38  1  0
 38 36  1  0
 36 39  1  0
 38 40  1  0
 41 39  1  0
 42 39  1  0
 43 41  2  0
 41 44  1  0
 45 42  2  0
 46 43  1  0
 44 47  2  0
 44 45  1  0
 48 46  2  0
 48 47  1  0
 47 49  1  0
  6 50  1  1
  7 51  1  0
  7 52  1  0
  8 53  1  0
  8 54  1  0
 10 55  1  0
 11 56  1  0
 12 57  1  0
 13 58  1  0
 16 59  1  6
 17 60  1  0
 17 61  1  0
 17 62  1  0
 19 63  1  0
 22 64  1  0
 28 65  1  0
 28 66  1  0
 32 67  1  0
 32 68  1  0
 33 69  1  0
 35 70  1  0
 36 71  1  0
 37 72  1  0
 38 73  1  0
 40 74  1  0
 42 75  1  0
 46 76  1  0
 49 77  1  0
 49 78  1  0
M  CHG  3   5  -1  23   1  26  -1
M  END
>  <EmbedRMS>  (396) 
0.0829333769963

$$$$

     RDKit          3D

 78 83  0  0  0  0  0  0  0  0999 V2000
   10.2803   43.7665   33.8251 C   0  0  0  0  0  0  0  0  0  0  0  0
   11.4111   43.5918   34.3667 O   0  0  0  0  0  0  0  0  0  0  0  0
    9.3616   42.7251   33.7349 O   0  0  0  0  0  0  0  0  0  0  0  0
    9.8896   41.2269   34.2946 P   0  0  0  0  0  0  0  0  0  0  0  0
   10.3732   41.4568   35.8838 O   0  0  0  0  0  0  0  0  0  0  0  0
    9.9459   45.0736   33.2113 C   0  0  1  0  0  0  0  0  0  0  0  0
   11.0267   46.0291   33.4706 N   0  0  0  0  0  0  0  0  0  0  0  0
    9.7535   44.8539   31.6951 C   0  0  0  0  0  0  0  0  0  0  0  0
    8.7954   45.8412   31.0851 C   0  0  0  0  0  0  0  0  0  0  0  0
    7.4089   45.6003   31.1005 C   0  0  0  0  0  0  0  0  0  0  0  0
    9.2828   46.9875   30.4397 C   0  0  0  0  0  0  0  0  0  0  0  0
    6.5286   46.5005   30.4846 C   0  0  0  0  0  0  0  0  0  0  0  0
    8.4026   47.8889   29.8294 C   0  0  0  0  0  0  0  0  0  0  0  0
    7.0129   47.6523   29.8492 C   0  0  0  0  0  0  0  0  0  0  0  0
    6.0806   48.5156   29.2505 O   0  0  0  0  0  0  0  0  0  0  0  0
    6.3639   49.7898   28.6666 C   0  0  2  0  0  0  0  0  0  0  0  0
    6.6702   50.8387   29.7426 C   0  0  0  0  0  0  0  0  0  0  0  0
    5.2057   50.2525   27.7983 C   0  0  0  0  0  0  0  0  0  0  0  0
    5.5198   51.0357   26.6602 C   0  0  0  0  0  0  0  0  0  0  0  0
    3.8302   49.9141   28.0549 C   0  0  0  0  0  0  0  0  0  0  0  0
    4.4912   51.4244   25.8128 C   0  0  0  0  0  0  0  0  0  0  0  0
    2.8299   50.3251   27.1449 C   0  0  0  0  0  0  0  0  0  0  0  0
    3.4263   49.1622   29.2098 N   0  0  0  0  0  0  0  0  0  0  0  0
    4.5692   52.1750   24.6554 O   0  0  0  0  0  0  0  0  0  0  0  0
    3.2040   51.0804   26.0424 C   0  0  0  0  0  0  0  0  0  0  0  0
    2.4249   48.2256   29.0963 O   0  0  0  0  0  0  0  0  0  0  0  0
    3.7975   49.5089   30.3492 O   0  0  0  0  0  0  0  0  0  0  0  0
    3.2434   52.3101   24.1257 C   0  0  0  0  0  0  0  0  0  0  0  0
    2.4024   51.5962   25.0422 O   0  0  0  0  0  0  0  0  0  0  0  0
    8.8122   40.1844   34.2135 O   0  0  0  0  0  0  0  0  0  0  0  0
   11.2401   40.7950   33.3698 O   0  0  0  0  0  0  0  0  0  0  0  0
   10.9143   40.6914   31.9981 C   0  0  0  0  0  0  0  0  0  0  0  0
   11.5269   39.3912   31.4385 C   0  0  0  0  0  0  0  0  0  0  0  0
   12.7519   39.0911   32.0837 O   0  0  0  0  0  0  0  0  0  0  0  0
   10.6113   38.1932   31.6451 C   0  0  0  0  0  0  0  0  0  0  0  0
   12.9413   37.6838   32.0297 C   0  0  0  0  0  0  0  0  0  0  0  0
    9.6064   38.0877   30.6599 O   0  0  0  0  0  0  0  0  0  0  0  0
   11.5822   37.0197   31.6877 C   0  0  0  0  0  0  0  0  0  0  0  0
   13.4840   37.2104   33.3254 N   0  0  0  0  0  0  0  0  0  0  0  0
   11.6179   36.3072   30.4690 O   0  0  0  0  0  0  0  0  0  0  0  0
   14.4797   36.3309   33.5738 C   0  0  0  0  0  0  0  0  0  0  0  0
   13.1136   37.6269   34.5702 C   0  0  0  0  0  0  0  0  0  0  0  0
   15.2074   35.6152   32.6747 N   0  0  0  0  0  0  0  0  0  0  0  0
   14.6756   36.2298   34.9190 C   0  0  0  0  0  0  0  0  0  0  0  0
   13.8217   37.0445   35.5793 N   0  0  0  0  0  0  0  0  0  0  0  0
   16.1643   34.7603   33.1551 C   0  0  0  0  0  0  0  0  0  0  0  0
   15.6528   35.3503   35.4136 C   0  0  0  0  0  0  0  0  0  0  0  0
   16.3798   34.6316   34.5046 N   0  0  0  0  0  0  0  0  0  0  0  0
   15.9004   35.1930   36.8094 N   0  0  0  0  0  0  0  0  0  0  0  0
    8.9996   45.4383   33.6725 H   0  0  0  0  0  0  0  0  0  0  0  0
   11.0505   46.2278   34.4980 H   0  0  0  0  0  0  0  0  0  0  0  0
   10.7765   46.9368   33.0156 H   0  0  0  0  0  0  0  0  0  0  0  0
   10.7405   44.9069   31.1836 H   0  0  0  0  0  0  0  0  0  0  0  0
    9.3634   43.8353   31.4717 H   0  0  0  0  0  0  0  0  0  0  0  0
    7.0132   44.7158   31.5843 H   0  0  0  0  0  0  0  0  0  0  0  0
   10.3472   47.1849   30.4052 H   0  0  0  0  0  0  0  0  0  0  0  0
    5.4642   46.3030   30.5037 H   0  0  0  0  0  0  0  0  0  0  0  0
    8.8193   48.7579   29.3416 H   0  0  0  0  0  0  0  0  0  0  0  0
    7.2568   49.6829   28.0124 H   0  0  0  0  0  0  0  0  0  0  0  0
    6.9714   51.7945   29.2633 H   0  0  0  0  0  0  0  0  0  0  0  0
    5.7851   51.0299   30.3816 H   0  0  0  0  0  0  0  0  0  0  0  0
    7.5033   50.5027   30.3925 H   0  0  0  0  0  0  0  0  0  0  0  0
    6.5393   51.3236   26.4355 H   0  0  0  0  0  0  0  0  0  0  0  0
    1.7877   50.0808   27.3060 H   0  0  0  0  0  0  0  0  0  0  0  0
    3.1847   51.8525   23.1159 H   0  0  0  0  0  0  0  0  0  0  0  0
    2.9507   53.3804   24.0913 H   0  0  0  0  0  0  0  0  0  0  0  0
    9.8233   40.7200   31.7652 H   0  0  0  0  0  0  0  0  0  0  0  0
   11.3775   41.5548   31.4741 H   0  0  0  0  0  0  0  0  0  0  0  0
   11.7312   39.5362   30.3532 H   0  0  0  0  0  0  0  0  0  0  0  0
   10.1202   38.2696   32.6410 H   0  0  0  0  0  0  0  0  0  0  0  0
   13.6850   37.4639   31.2321 H   0  0  0  0  0  0  0  0  0  0  0  0
   10.0251   38.1792   29.7654 H   0  0  0  0  0  0  0  0  0  0  0  0
   11.2757   36.3135   32.4907 H   0  0  0  0  0  0  0  0  0  0  0  0
   11.9839   36.9111   29.7708 H   0  0  0  0  0  0  0  0  0  0  0  0
   12.3307   38.3536   34.7458 H   0  0  0  0  0  0  0  0  0  0  0  0
   16.7566   34.1786   32.4623 H   0  0  0  0  0  0  0  0  0  0  0  0
   16.6353   34.5301   37.1419 H   0  0  0  0  0  0  0  0  0  0  0  0
   15.3535   35.7355   37.5144 H   0  0  0  0  0  0  0  0  0  0  0  0
  1  2  2  0
  1  3  1  0
  3  4  1  0
  4  5  1  0
  6  1  1  0
  7  6  1  0
  6  8  1  0
  8  9  1  0
  9 10  2  0
 11  9  1  0
 10 12  1  0
 13 11  2  0
 12 14  2  0
 14 13  1  0
 14 15  1  0
 15 16  1  0
 16 17  1  0
 16 18  1  0
 18 19  2  0
 20 18  1  0
 19 21  1  0
 22 20  2  0
 20 23  1  0
 21 24  1  0
 21 25  2  0
 25 22  1  0
 23 26  1  0
 23 27  2  0
 24 28  1  0
 25 29  1  0
 28 29  1  0
  4 30  2  0
  4 31  1  0
 32 31  1  0
 32 33  1  0
 33 34  1  0
 33 35  1  0
 34 36  1  0
 35 37  1  0
 35 38  1  0
 38 36  1  0
 36 39  1  0
 38 40  1  0
 41 39  1  0
 42 39  1  0
 43 41  2  0
 41 44  1  0
 45 42  2  0
 46 43  1  0
 44 47  2  0
 44 45  1  0
 48 46  2  0
 48 47  1  0
 47 49  1  0
  6 50  1  1
  7 51  1  0
  7 52  1  0
  8 53  1  0
  8 54  1  0
 10 55  1  0
 11 56  1  0
 12 57  1  0
 13 58  1  0
 16 59  1  6
 17 60  1  0
 17 61  1  0
 17 62  1  0
 19 63  1  0
 22 64  1  0
 28 65  1  0
 28 66  1  0
 32 67  1  0
 32 68  1  0
 33 69  1  0
 35 70  1  0
 36 71  1  0
 37 72  1  0
 38 73  1  0
 40 74  1  0
 42 75  1  0
 46 76  1  0
 49 77  1  0
 49 78  1  0
M  CHG  3   5  -1  23   1  26  -1
M  END
>  <EmbedRMS>  (397) 
0.0806429536571

$$$$

     RDKit          3D

 78 83  0  0  0  0  0  0  0  0999 V2000
   10.2839   43.7626   33.8277 C   0  0  0  0  0  0  0  0  0  0  0  0
   11.4104   43.5864   34.3767 O   0  0  0  0  0  0  0  0  0  0  0  0
    9.3631   42.7236   33.7356 O   0  0  0  0  0  0  0  0  0  0  0  0
    9.8895   41.2249   34.2948 P   0  0  0  0  0  0  0  0  0  0  0  0
   10.3720   41.4547   35.8844 O   0  0  0  0  0  0  0  0  0  0  0  0
    9.9548   45.0699   33.2062 C   0  0  1  0  0  0  0  0  0  0  0  0
   11.0197   46.0481   33.4567 N   0  0  0  0  0  0  0  0  0  0  0  0
    9.7501   44.8506   31.6922 C   0  0  0  0  0  0  0  0  0  0  0  0
    8.7942   45.8414   31.0865 C   0  0  0  0  0  0  0  0  0  0  0  0
    7.4075   45.6012   31.1004 C   0  0  0  0  0  0  0  0  0  0  0  0
    9.2830   46.9890   30.4451 C   0  0  0  0  0  0  0  0  0  0  0  0
    6.5282   46.5026   30.4853 C   0  0  0  0  0  0  0  0  0  0  0  0
    8.4035   47.8904   29.8336 C   0  0  0  0  0  0  0  0  0  0  0  0
    7.0147   47.6511   29.8455 C   0  0  0  0  0  0  0  0  0  0  0  0
    6.0870   48.5167   29.2425 O   0  0  0  0  0  0  0  0  0  0  0  0
    6.4097   49.6658   28.4584 C   0  0  2  0  0  0  0  0  0  0  0  0
    5.1505   50.5061   28.2443 C   0  0  0  0  0  0  0  0  0  0  0  0
    7.0369   49.2728   27.1286 C   0  0  0  0  0  0  0  0  0  0  0  0
    8.2929   49.8363   26.7939 C   0  0  0  0  0  0  0  0  0  0  0  0
    6.3878   48.4084   26.1834 C   0  0  0  0  0  0  0  0  0  0  0  0
    8.8546   49.5282   25.5618 C   0  0  0  0  0  0  0  0  0  0  0  0
    7.0011   48.1421   24.9392 C   0  0  0  0  0  0  0  0  0  0  0  0
    5.1122   47.8146   26.4538 N   0  0  0  0  0  0  0  0  0  0  0  0
   10.0572   49.9578   25.0347 O   0  0  0  0  0  0  0  0  0  0  0  0
    8.2356   48.7180   24.6732 C   0  0  0  0  0  0  0  0  0  0  0  0
    4.9939   46.8714   27.4464 O   0  0  0  0  0  0  0  0  0  0  0  0
    4.1938   47.9240   25.6158 O   0  0  0  0  0  0  0  0  0  0  0  0
   10.2015   49.3773   23.7313 C   0  0  0  0  0  0  0  0  0  0  0  0
    9.0160   48.5933   23.5400 O   0  0  0  0  0  0  0  0  0  0  0  0
    8.8117   40.1831   34.2125 O   0  0  0  0  0  0  0  0  0  0  0  0
   11.2412   40.7938   33.3710 O   0  0  0  0  0  0  0  0  0  0  0  0
   10.9179   40.6919   31.9986 C   0  0  0  0  0  0  0  0  0  0  0  0
   11.5175   39.3837   31.4422 C   0  0  0  0  0  0  0  0  0  0  0  0
   12.7508   39.0887   32.0751 O   0  0  0  0  0  0  0  0  0  0  0  0
   10.6028   38.1915   31.6658 C   0  0  0  0  0  0  0  0  0  0  0  0
   12.9385   37.6818   32.0277 C   0  0  0  0  0  0  0  0  0  0  0  0
    9.6372   38.0804   30.6470 O   0  0  0  0  0  0  0  0  0  0  0  0
   11.5781   37.0215   31.6934 C   0  0  0  0  0  0  0  0  0  0  0  0
   13.4844   37.2120   33.3242 N   0  0  0  0  0  0  0  0  0  0  0  0
   11.6096   36.3201   30.4678 O   0  0  0  0  0  0  0  0  0  0  0  0
   14.4797   36.3318   33.5730 C   0  0  0  0  0  0  0  0  0  0  0  0
   13.1135   37.6278   34.5691 C   0  0  0  0  0  0  0  0  0  0  0  0
   15.2073   35.6155   32.6743 N   0  0  0  0  0  0  0  0  0  0  0  0
   14.6754   36.2305   34.9184 C   0  0  0  0  0  0  0  0  0  0  0  0
   13.8213   37.0452   35.5785 N   0  0  0  0  0  0  0  0  0  0  0  0
   16.1640   34.7604   33.1549 C   0  0  0  0  0  0  0  0  0  0  0  0
   15.6524   35.3507   35.4133 C   0  0  0  0  0  0  0  0  0  0  0  0
   16.3794   34.6317   34.5044 N   0  0  0  0  0  0  0  0  0  0  0  0
   15.9000   35.1934   36.8091 N   0  0  0  0  0  0  0  0  0  0  0  0
    9.0098   45.4348   33.6668 H   0  0  0  0  0  0  0  0  0  0  0  0
   11.1134   46.1993   34.4880 H   0  0  0  0  0  0  0  0  0  0  0  0
   11.9346   45.6933   33.0921 H   0  0  0  0  0  0  0  0  0  0  0  0
    9.3508   43.8341   31.4763 H   0  0  0  0  0  0  0  0  0  0  0  0
   10.7304   44.8921   31.1672 H   0  0  0  0  0  0  0  0  0  0  0  0
    7.0106   44.7163   31.5827 H   0  0  0  0  0  0  0  0  0  0  0  0
   10.3472   47.1891   30.4186 H   0  0  0  0  0  0  0  0  0  0  0  0
    5.4639   46.3051   30.5025 H   0  0  0  0  0  0  0  0  0  0  0  0
    8.8173   48.7680   29.3611 H   0  0  0  0  0  0  0  0  0  0  0  0
    7.1067   50.3059   29.0440 H   0  0  0  0  0  0  0  0  0  0  0  0
    4.7725   50.8663   29.2247 H   0  0  0  0  0  0  0  0  0  0  0  0
    4.3460   49.9149   27.7619 H   0  0  0  0  0  0  0  0  0  0  0  0
    5.3817   51.3899   27.6117 H   0  0  0  0  0  0  0  0  0  0  0  0
    8.8144   50.5037   27.4682 H   0  0  0  0  0  0  0  0  0  0  0  0
    6.5308   47.4969   24.2081 H   0  0  0  0  0  0  0  0  0  0  0  0
   11.1005   48.7267   23.6980 H   0  0  0  0  0  0  0  0  0  0  0  0
   10.2626   50.1740   22.9606 H   0  0  0  0  0  0  0  0  0  0  0  0
    9.8292   40.7408   31.7625 H   0  0  0  0  0  0  0  0  0  0  0  0
   11.3954   41.5477   31.4751 H   0  0  0  0  0  0  0  0  0  0  0  0
   11.6981   39.5116   30.3500 H   0  0  0  0  0  0  0  0  0  0  0  0
   10.1117   38.2602   32.6660 H   0  0  0  0  0  0  0  0  0  0  0  0
   13.6767   37.4555   31.2267 H   0  0  0  0  0  0  0  0  0  0  0  0
    8.8962   38.6950   30.8871 H   0  0  0  0  0  0  0  0  0  0  0  0
   11.2792   36.3072   32.4922 H   0  0  0  0  0  0  0  0  0  0  0  0
   11.8827   36.9598   29.7588 H   0  0  0  0  0  0  0  0  0  0  0  0
   12.3300   38.3539   34.7446 H   0  0  0  0  0  0  0  0  0  0  0  0
   16.7561   34.1786   32.4621 H   0  0  0  0  0  0  0  0  0  0  0  0
   16.6347   34.5303   37.1416 H   0  0  0  0  0  0  0  0  0  0  0  0
   15.3531   35.7360   37.5140 H   0  0  0  0  0  0  0  0  0  0  0  0
  1  2  2  0
  1  3  1  0
  3  4  1  0
  4  5  1  0
  6  1  1  0
  7  6  1  0
  6  8  1  0
  8  9  1  0
  9 10  2  0
 11  9  1  0
 10 12  1  0
 13 11  2  0
 12 14  2  0
 14 13  1  0
 14 15  1  0
 15 16  1  0
 16 17  1  0
 16 18  1  0
 18 19  2  0
 20 18  1  0
 19 21  1  0
 22 20  2  0
 20 23  1  0
 21 24  1  0
 21 25  2  0
 25 22  1  0
 23 26  1  0
 23 27  2  0
 24 28  1  0
 25 29  1  0
 28 29  1  0
  4 30  2  0
  4 31  1  0
 32 31  1  0
 32 33  1  0
 33 34  1  0
 33 35  1  0
 34 36  1  0
 35 37  1  0
 35 38  1  0
 38 36  1  0
 36 39  1  0
 38 40  1  0
 41 39  1  0
 42 39  1  0
 43 41  2  0
 41 44  1  0
 45 42  2  0
 46 43  1  0
 44 47  2  0
 44 45  1  0
 48 46  2  0
 48 47  1  0
 47 49  1  0
  6 50  1  1
  7 51  1  0
  7 52  1  0
  8 53  1  0
  8 54  1  0
 10 55  1  0
 11 56  1  0
 12 57  1  0
 13 58  1  0
 16 59  1  1
 17 60  1  0
 17 61  1  0
 17 62  1  0
 19 63  1  0
 22 64  1  0
 28 65  1  0
 28 66  1  0
 32 67  1  0
 32 68  1  0
 33 69  1  0
 35 70  1  0
 36 71  1  0
 37 72  1  0
 38 73  1  0
 40 74  1  0
 42 75  1  0
 46 76  1  0
 49 77  1  0
 49 78  1  0
M  CHG  3   5  -1  23   1  26  -1
M  END
>  <EmbedRMS>  (398) 
0.0829007039576

$$$$

     RDKit          3D

 78 83  0  0  0  0  0  0  0  0999 V2000
   10.2803   43.7665   33.8251 C   0  0  0  0  0  0  0  0  0  0  0  0
   11.4111   43.5918   34.3667 O   0  0  0  0  0  0  0  0  0  0  0  0
    9.3616   42.7251   33.7349 O   0  0  0  0  0  0  0  0  0  0  0  0
    9.8896   41.2269   34.2945 P   0  0  0  0  0  0  0  0  0  0  0  0
   10.3732   41.4568   35.8838 O   0  0  0  0  0  0  0  0  0  0  0  0
    9.9459   45.0736   33.2113 C   0  0  1  0  0  0  0  0  0  0  0  0
   11.0267   46.0292   33.4706 N   0  0  0  0  0  0  0  0  0  0  0  0
    9.7535   44.8539   31.6951 C   0  0  0  0  0  0  0  0  0  0  0  0
    8.7955   45.8412   31.0851 C   0  0  0  0  0  0  0  0  0  0  0  0
    7.4089   45.6003   31.1005 C   0  0  0  0  0  0  0  0  0  0  0  0
    9.2828   46.9875   30.4397 C   0  0  0  0  0  0  0  0  0  0  0  0
    6.5286   46.5005   30.4847 C   0  0  0  0  0  0  0  0  0  0  0  0
    8.4026   47.8889   29.8294 C   0  0  0  0  0  0  0  0  0  0  0  0
    7.0129   47.6523   29.8492 C   0  0  0  0  0  0  0  0  0  0  0  0
    6.0806   48.5156   29.2506 O   0  0  0  0  0  0  0  0  0  0  0  0
    6.3642   49.7888   28.6648 C   0  0  2  0  0  0  0  0  0  0  0  0
    6.6707   50.8384   29.7400 C   0  0  0  0  0  0  0  0  0  0  0  0
    5.2074   50.2532   27.7956 C   0  0  0  0  0  0  0  0  0  0  0  0
    5.5209   51.0682   26.6799 C   0  0  0  0  0  0  0  0  0  0  0  0
    3.8357   49.8871   28.0292 C   0  0  0  0  0  0  0  0  0  0  0  0
    4.4951   51.4621   25.8315 C   0  0  0  0  0  0  0  0  0  0  0  0
    2.8374   50.3064   27.1196 C   0  0  0  0  0  0  0  0  0  0  0  0
    3.4361   49.1057   29.1659 N   0  0  0  0  0  0  0  0  0  0  0  0
    4.5733   52.2418   24.6936 O   0  0  0  0  0  0  0  0  0  0  0  0
    3.2110   51.0938   26.0395 C   0  0  0  0  0  0  0  0  0  0  0  0
    3.8078   49.4864   30.4337 O   0  0  0  0  0  0  0  0  0  0  0  0
    2.5699   48.2164   29.0351 O   0  0  0  0  0  0  0  0  0  0  0  0
    3.2508   52.3704   24.1539 C   0  0  0  0  0  0  0  0  0  0  0  0
    2.4116   51.6221   25.0441 O   0  0  0  0  0  0  0  0  0  0  0  0
    8.8122   40.1844   34.2135 O   0  0  0  0  0  0  0  0  0  0  0  0
   11.2401   40.7950   33.3698 O   0  0  0  0  0  0  0  0  0  0  0  0
   10.9143   40.6914   31.9981 C   0  0  0  0  0  0  0  0  0  0  0  0
   11.5270   39.3912   31.4385 C   0  0  0  0  0  0  0  0  0  0  0  0
   12.7519   39.0911   32.0837 O   0  0  0  0  0  0  0  0  0  0  0  0
   10.6113   38.1932   31.6451 C   0  0  0  0  0  0  0  0  0  0  0  0
   12.9413   37.6838   32.0297 C   0  0  0  0  0  0  0  0  0  0  0  0
    9.6064   38.0878   30.6599 O   0  0  0  0  0  0  0  0  0  0  0  0
   11.5822   37.0197   31.6877 C   0  0  0  0  0  0  0  0  0  0  0  0
   13.4840   37.2104   33.3254 N   0  0  0  0  0  0  0  0  0  0  0  0
   11.6179   36.3072   30.4690 O   0  0  0  0  0  0  0  0  0  0  0  0
   14.4797   36.3309   33.5738 C   0  0  0  0  0  0  0  0  0  0  0  0
   13.1136   37.6269   34.5702 C   0  0  0  0  0  0  0  0  0  0  0  0
   15.2074   35.6152   32.6747 N   0  0  0  0  0  0  0  0  0  0  0  0
   14.6756   36.2298   34.9190 C   0  0  0  0  0  0  0  0  0  0  0  0
   13.8217   37.0445   35.5793 N   0  0  0  0  0  0  0  0  0  0  0  0
   16.1643   34.7603   33.1551 C   0  0  0  0  0  0  0  0  0  0  0  0
   15.6528   35.3503   35.4136 C   0  0  0  0  0  0  0  0  0  0  0  0
   16.3798   34.6316   34.5046 N   0  0  0  0  0  0  0  0  0  0  0  0
   15.9004   35.1930   36.8094 N   0  0  0  0  0  0  0  0  0  0  0  0
    8.9996   45.4383   33.6725 H   0  0  0  0  0  0  0  0  0  0  0  0
   11.0505   46.2278   34.4980 H   0  0  0  0  0  0  0  0  0  0  0  0
   10.7765   46.9368   33.0156 H   0  0  0  0  0  0  0  0  0  0  0  0
    9.3634   43.8353   31.4717 H   0  0  0  0  0  0  0  0  0  0  0  0
   10.7405   44.9069   31.1836 H   0  0  0  0  0  0  0  0  0  0  0  0
    7.0132   44.7158   31.5843 H   0  0  0  0  0  0  0  0  0  0  0  0
   10.3472   47.1850   30.4052 H   0  0  0  0  0  0  0  0  0  0  0  0
    5.4642   46.3031   30.5037 H   0  0  0  0  0  0  0  0  0  0  0  0
    8.8191   48.7581   29.3418 H   0  0  0  0  0  0  0  0  0  0  0  0
    7.2562   49.6799   28.0096 H   0  0  0  0  0  0  0  0  0  0  0  0
    6.9819   51.7909   29.2605 H   0  0  0  0  0  0  0  0  0  0  0  0
    7.4966   50.4984   30.3971 H   0  0  0  0  0  0  0  0  0  0  0  0
    5.7816   51.0372   30.3712 H   0  0  0  0  0  0  0  0  0  0  0  0
    6.5382   51.3765   26.4731 H   0  0  0  0  0  0  0  0  0  0  0  0
    1.7974   50.0432   27.2648 H   0  0  0  0  0  0  0  0  0  0  0  0
    3.2089   51.9368   23.1327 H   0  0  0  0  0  0  0  0  0  0  0  0
    2.9426   53.4369   24.1425 H   0  0  0  0  0  0  0  0  0  0  0  0
    9.8234   40.7201   31.7652 H   0  0  0  0  0  0  0  0  0  0  0  0
   11.3776   41.5548   31.4741 H   0  0  0  0  0  0  0  0  0  0  0  0
   11.7312   39.5362   30.3532 H   0  0  0  0  0  0  0  0  0  0  0  0
   10.1202   38.2696   32.6410 H   0  0  0  0  0  0  0  0  0  0  0  0
   13.6850   37.4639   31.2321 H   0  0  0  0  0  0  0  0  0  0  0  0
   10.0251   38.1792   29.7654 H   0  0  0  0  0  0  0  0  0  0  0  0
   11.2757   36.3135   32.4907 H   0  0  0  0  0  0  0  0  0  0  0  0
   11.9839   36.9111   29.7708 H   0  0  0  0  0  0  0  0  0  0  0  0
   12.3307   38.3536   34.7458 H   0  0  0  0  0  0  0  0  0  0  0  0
   16.7566   34.1787   32.4623 H   0  0  0  0  0  0  0  0  0  0  0  0
   16.6353   34.5301   37.1419 H   0  0  0  0  0  0  0  0  0  0  0  0
   15.3535   35.7355   37.5144 H   0  0  0  0  0  0  0  0  0  0  0  0
  1  2  2  0
  1  3  1  0
  3  4  1  0
  4  5  1  0
  6  1  1  0
  7  6  1  0
  6  8  1  0
  8  9  1  0
  9 10  2  0
 11  9  1  0
 10 12  1  0
 13 11  2  0
 12 14  2  0
 14 13  1  0
 14 15  1  0
 15 16  1  0
 16 17  1  0
 16 18  1  0
 18 19  2  0
 20 18  1  0
 19 21  1  0
 22 20  2  0
 20 23  1  0
 21 24  1  0
 21 25  2  0
 25 22  1  0
 23 26  1  0
 23 27  2  0
 24 28  1  0
 25 29  1  0
 28 29  1  0
  4 30  2  0
  4 31  1  0
 32 31  1  0
 32 33  1  0
 33 34  1  0
 33 35  1  0
 34 36  1  0
 35 37  1  0
 35 38  1  0
 38 36  1  0
 36 39  1  0
 38 40  1  0
 41 39  1  0
 42 39  1  0
 43 41  2  0
 41 44  1  0
 45 42  2  0
 46 43  1  0
 44 47  2  0
 44 45  1  0
 48 46  2  0
 48 47  1  0
 47 49  1  0
  6 50  1  1
  7 51  1  0
  7 52  1  0
  8 53  1  0
  8 54  1  0
 10 55  1  0
 11 56  1  0
 12 57  1  0
 13 58  1  0
 16 59  1  6
 17 60  1  0
 17 61  1  0
 17 62  1  0
 19 63  1  0
 22 64  1  0
 28 65  1  0
 28 66  1  0
 32 67  1  0
 32 68  1  0
 33 69  1  0
 35 70  1  0
 36 71  1  0
 37 72  1  0
 38 73  1  0
 40 74  1  0
 42 75  1  0
 46 76  1  0
 49 77  1  0
 49 78  1  0
M  CHG  3   5  -1  23   1  26  -1
M  END
>  <EmbedRMS>  (399) 
0.0806443051534

$$$$

     RDKit          3D

 78 83  0  0  0  0  0  0  0  0999 V2000
   10.2803   43.7665   33.8247 C   0  0  0  0  0  0  0  0  0  0  0  0
   11.4109   43.5921   34.3665 O   0  0  0  0  0  0  0  0  0  0  0  0
    9.3618   42.7249   33.7345 O   0  0  0  0  0  0  0  0  0  0  0  0
    9.8900   41.2268   34.2943 P   0  0  0  0  0  0  0  0  0  0  0  0
   10.3728   41.4568   35.8838 O   0  0  0  0  0  0  0  0  0  0  0  0
    9.9458   45.0736   33.2106 C   0  0  1  0  0  0  0  0  0  0  0  0
   11.0265   46.0292   33.4702 N   0  0  0  0  0  0  0  0  0  0  0  0
    9.7536   44.8539   31.6941 C   0  0  0  0  0  0  0  0  0  0  0  0
    8.7955   45.8408   31.0833 C   0  0  0  0  0  0  0  0  0  0  0  0
    7.4073   45.6012   31.1026 C   0  0  0  0  0  0  0  0  0  0  0  0
    9.2830   46.9895   30.4401 C   0  0  0  0  0  0  0  0  0  0  0  0
    6.5255   46.5025   30.4893 C   0  0  0  0  0  0  0  0  0  0  0  0
    8.4000   47.8910   29.8346 C   0  0  0  0  0  0  0  0  0  0  0  0
    7.0207   47.6448   29.8422 C   0  0  0  0  0  0  0  0  0  0  0  0
    6.1548   48.5556   29.2280 O   0  0  0  0  0  0  0  0  0  0  0  0
    5.5284   48.3618   27.9521 C   0  0  2  0  0  0  0  0  0  0  0  0
    4.5479   47.1831   27.9585 C   0  0  0  0  0  0  0  0  0  0  0  0
    6.5589   48.2492   26.8320 C   0  0  0  0  0  0  0  0  0  0  0  0
    7.4109   47.1152   26.7842 C   0  0  0  0  0  0  0  0  0  0  0  0
    6.7384   49.2903   25.8590 C   0  0  0  0  0  0  0  0  0  0  0  0
    8.4147   47.0741   25.8262 C   0  0  0  0  0  0  0  0  0  0  0  0
    7.7873   49.2002   24.9173 C   0  0  0  0  0  0  0  0  0  0  0  0
    5.8658   50.4262   25.7966 N   0  0  0  0  0  0  0  0  0  0  0  0
    9.3569   46.0865   25.6123 O   0  0  0  0  0  0  0  0  0  0  0  0
    8.5989   48.0748   24.9362 C   0  0  0  0  0  0  0  0  0  0  0  0
    6.3970   51.6790   25.5948 O   0  0  0  0  0  0  0  0  0  0  0  0
    4.6402   50.2578   25.6301 O   0  0  0  0  0  0  0  0  0  0  0  0
   10.1851   46.4957   24.5155 C   0  0  0  0  0  0  0  0  0  0  0  0
    9.6660   47.7706   24.1130 O   0  0  0  0  0  0  0  0  0  0  0  0
    8.8127   40.1842   34.2128 O   0  0  0  0  0  0  0  0  0  0  0  0
   11.2414   40.7951   33.3705 O   0  0  0  0  0  0  0  0  0  0  0  0
   10.9178   40.6922   31.9982 C   0  0  0  0  0  0  0  0  0  0  0  0
   11.5175   39.3837   31.4423 C   0  0  0  0  0  0  0  0  0  0  0  0
   12.7507   39.0887   32.0753 O   0  0  0  0  0  0  0  0  0  0  0  0
   10.6028   38.1916   31.6658 C   0  0  0  0  0  0  0  0  0  0  0  0
   12.9384   37.6819   32.0278 C   0  0  0  0  0  0  0  0  0  0  0  0
    9.6371   38.0806   30.6470 O   0  0  0  0  0  0  0  0  0  0  0  0
   11.5780   37.0215   31.6935 C   0  0  0  0  0  0  0  0  0  0  0  0
   13.4844   37.2119   33.3242 N   0  0  0  0  0  0  0  0  0  0  0  0
   11.6095   36.3202   30.4679 O   0  0  0  0  0  0  0  0  0  0  0  0
   14.4797   36.3318   33.5730 C   0  0  0  0  0  0  0  0  0  0  0  0
   13.1135   37.6278   34.5691 C   0  0  0  0  0  0  0  0  0  0  0  0
   15.2073   35.6155   32.6743 N   0  0  0  0  0  0  0  0  0  0  0  0
   14.6754   36.2305   34.9184 C   0  0  0  0  0  0  0  0  0  0  0  0
   13.8213   37.0452   35.5785 N   0  0  0  0  0  0  0  0  0  0  0  0
   16.1640   34.7604   33.1549 C   0  0  0  0  0  0  0  0  0  0  0  0
   15.6524   35.3507   35.4133 C   0  0  0  0  0  0  0  0  0  0  0  0
   16.3794   34.6318   34.5044 N   0  0  0  0  0  0  0  0  0  0  0  0
   15.8999   35.1934   36.8091 N   0  0  0  0  0  0  0  0  0  0  0  0
    8.9994   45.4382   33.6714 H   0  0  0  0  0  0  0  0  0  0  0  0
   10.7764   46.9368   33.0150 H   0  0  0  0  0  0  0  0  0  0  0  0
   11.0498   46.2280   34.4976 H   0  0  0  0  0  0  0  0  0  0  0  0
    9.3638   43.8353   31.4706 H   0  0  0  0  0  0  0  0  0  0  0  0
   10.7407   44.9074   31.1826 H   0  0  0  0  0  0  0  0  0  0  0  0
    7.0118   44.7204   31.5933 H   0  0  0  0  0  0  0  0  0  0  0  0
   10.3468   47.1896   30.4064 H   0  0  0  0  0  0  0  0  0  0  0  0
    5.4608   46.3164   30.5314 H   0  0  0  0  0  0  0  0  0  0  0  0
    8.7881   48.7737   29.3425 H   0  0  0  0  0  0  0  0  0  0  0  0
    4.9037   49.2612   27.8019 H   0  0  0  0  0  0  0  0  0  0  0  0
    5.0682   46.2143   28.0986 H   0  0  0  0  0  0  0  0  0  0  0  0
    3.8107   47.3131   28.7789 H   0  0  0  0  0  0  0  0  0  0  0  0
    3.9964   47.1484   26.9948 H   0  0  0  0  0  0  0  0  0  0  0  0
    7.3148   46.2957   27.4828 H   0  0  0  0  0  0  0  0  0  0  0  0
    7.9476   49.9745   24.1781 H   0  0  0  0  0  0  0  0  0  0  0  0
   10.1041   45.7683   23.6808 H   0  0  0  0  0  0  0  0  0  0  0  0
   11.2393   46.5989   24.8479 H   0  0  0  0  0  0  0  0  0  0  0  0
    9.8290   40.7409   31.7624 H   0  0  0  0  0  0  0  0  0  0  0  0
   11.3950   41.5477   31.4741 H   0  0  0  0  0  0  0  0  0  0  0  0
   11.6982   39.5114   30.3500 H   0  0  0  0  0  0  0  0  0  0  0  0
   10.1117   38.2604   32.6660 H   0  0  0  0  0  0  0  0  0  0  0  0
   13.6767   37.4557   31.2267 H   0  0  0  0  0  0  0  0  0  0  0  0
    8.8961   38.6951   30.8872 H   0  0  0  0  0  0  0  0  0  0  0  0
   11.2791   36.3072   32.4922 H   0  0  0  0  0  0  0  0  0  0  0  0
   11.8829   36.9598   29.7588 H   0  0  0  0  0  0  0  0  0  0  0  0
   12.3300   38.3538   34.7446 H   0  0  0  0  0  0  0  0  0  0  0  0
   16.7562   34.1785   32.4622 H   0  0  0  0  0  0  0  0  0  0  0  0
   16.6346   34.5303   37.1416 H   0  0  0  0  0  0  0  0  0  0  0  0
   15.3531   35.7360   37.5140 H   0  0  0  0  0  0  0  0  0  0  0  0
  1  2  2  0
  1  3  1  0
  3  4  1  0
  4  5  1  0
  6  1  1  0
  7  6  1  0
  6  8  1  0
  8  9  1  0
  9 10  2  0
 11  9  1  0
 10 12  1  0
 13 11  2  0
 12 14  2  0
 14 13  1  0
 14 15  1  0
 15 16  1  0
 16 17  1  0
 16 18  1  0
 18 19  2  0
 20 18  1  0
 19 21  1  0
 22 20  2  0
 20 23  1  0
 21 24  1  0
 21 25  2  0
 25 22  1  0
 23 26  1  0
 23 27  2  0
 24 28  1  0
 25 29  1  0
 28 29  1  0
  4 30  2  0
  4 31  1  0
 32 31  1  0
 32 33  1  0
 33 34  1  0
 33 35  1  0
 34 36  1  0
 35 37  1  0
 35 38  1  0
 38 36  1  0
 36 39  1  0
 38 40  1  0
 41 39  1  0
 42 39  1  0
 43 41  2  0
 41 44  1  0
 45 42  2  0
 46 43  1  0
 44 47  2  0
 44 45  1  0
 48 46  2  0
 48 47  1  0
 47 49  1  0
  6 50  1  1
  7 51  1  0
  7 52  1  0
  8 53  1  0
  8 54  1  0
 10 55  1  0
 11 56  1  0
 12 57  1  0
 13 58  1  0
 16 59  1  6
 17 60  1  0
 17 61  1  0
 17 62  1  0
 19 63  1  0
 22 64  1  0
 28 65  1  0
 28 66  1  0
 32 67  1  0
 32 68  1  0
 33 69  1  0
 35 70  1  0
 36 71  1  0
 37 72  1  0
 38 73  1  0
 40 74  1  0
 42 75  1  0
 46 76  1  0
 49 77  1  0
 49 78  1  0
M  CHG  3   5  -1  23   1  26  -1
M  END
>  <EmbedRMS>  (400) 
0.0819232868247

$$$$

     RDKit          3D

 78 83  0  0  0  0  0  0  0  0999 V2000
   10.2804   43.7665   33.8248 C   0  0  0  0  0  0  0  0  0  0  0  0
   11.4111   43.5921   34.3666 O   0  0  0  0  0  0  0  0  0  0  0  0
    9.3622   42.7248   33.7342 O   0  0  0  0  0  0  0  0  0  0  0  0
    9.8904   41.2265   34.2936 P   0  0  0  0  0  0  0  0  0  0  0  0
   10.3731   41.4565   35.8831 O   0  0  0  0  0  0  0  0  0  0  0  0
    9.9457   45.0738   33.2112 C   0  0  1  0  0  0  0  0  0  0  0  0
   11.0264   46.0294   33.4706 N   0  0  0  0  0  0  0  0  0  0  0  0
    9.7532   44.8544   31.6949 C   0  0  0  0  0  0  0  0  0  0  0  0
    8.7951   45.8416   31.0848 C   0  0  0  0  0  0  0  0  0  0  0  0
    7.4070   45.5998   31.1000 C   0  0  0  0  0  0  0  0  0  0  0  0
    9.2832   46.9889   30.4387 C   0  0  0  0  0  0  0  0  0  0  0  0
    6.5260   46.5002   30.4839 C   0  0  0  0  0  0  0  0  0  0  0  0
    8.4010   47.8884   29.8289 C   0  0  0  0  0  0  0  0  0  0  0  0
    7.0198   47.6498   29.8535 C   0  0  0  0  0  0  0  0  0  0  0  0
    6.1351   48.5458   29.2501 O   0  0  0  0  0  0  0  0  0  0  0  0
    5.6542   49.7012   29.9326 C   0  0  2  0  0  0  0  0  0  0  0  0
    4.4446   50.2830   29.1985 C   0  0  0  0  0  0  0  0  0  0  0  0
    6.7594   50.7306   30.1251 C   0  0  0  0  0  0  0  0  0  0  0  0
    7.1473   51.0358   31.4534 C   0  0  0  0  0  0  0  0  0  0  0  0
    7.4063   51.4116   29.0359 C   0  0  0  0  0  0  0  0  0  0  0  0
    8.1281   51.9964   31.6584 C   0  0  0  0  0  0  0  0  0  0  0  0
    8.3871   52.3925   29.3097 C   0  0  0  0  0  0  0  0  0  0  0  0
    7.0869   51.1347   27.6643 N   0  0  0  0  0  0  0  0  0  0  0  0
    8.6527   52.4463   32.8548 O   0  0  0  0  0  0  0  0  0  0  0  0
    8.7194   52.6483   30.6323 C   0  0  0  0  0  0  0  0  0  0  0  0
    7.1571   49.8499   27.1808 O   0  0  0  0  0  0  0  0  0  0  0  0
    6.9766   52.0763   26.8522 O   0  0  0  0  0  0  0  0  0  0  0  0
    9.6377   53.4453   32.5579 C   0  0  0  0  0  0  0  0  0  0  0  0
    9.6482   53.5434   31.1272 O   0  0  0  0  0  0  0  0  0  0  0  0
    8.8129   40.1842   34.2124 O   0  0  0  0  0  0  0  0  0  0  0  0
   11.2419   40.7944   33.3695 O   0  0  0  0  0  0  0  0  0  0  0  0
   10.9186   40.6911   31.9969 C   0  0  0  0  0  0  0  0  0  0  0  0
   11.5172   39.3814   31.4407 C   0  0  0  0  0  0  0  0  0  0  0  0
   12.7492   39.0856   32.0729 O   0  0  0  0  0  0  0  0  0  0  0  0
   10.6023   38.1908   31.6665 C   0  0  0  0  0  0  0  0  0  0  0  0
   12.9319   37.6781   32.0281 C   0  0  0  0  0  0  0  0  0  0  0  0
    9.6392   38.0797   30.6452 O   0  0  0  0  0  0  0  0  0  0  0  0
   11.5715   37.0165   31.7056 C   0  0  0  0  0  0  0  0  0  0  0  0
   13.4846   37.2121   33.3235 N   0  0  0  0  0  0  0  0  0  0  0  0
   11.6187   36.3383   30.4695 O   0  0  0  0  0  0  0  0  0  0  0  0
   14.4801   36.3321   33.5724 C   0  0  0  0  0  0  0  0  0  0  0  0
   13.1137   37.6276   34.5688 C   0  0  0  0  0  0  0  0  0  0  0  0
   15.2073   35.6153   32.6738 N   0  0  0  0  0  0  0  0  0  0  0  0
   14.6759   36.2308   34.9179 C   0  0  0  0  0  0  0  0  0  0  0  0
   13.8217   37.0452   35.5781 N   0  0  0  0  0  0  0  0  0  0  0  0
   16.1640   34.7602   33.1546 C   0  0  0  0  0  0  0  0  0  0  0  0
   15.6526   35.3508   35.4129 C   0  0  0  0  0  0  0  0  0  0  0  0
   16.3794   34.6317   34.5041 N   0  0  0  0  0  0  0  0  0  0  0  0
   15.8999   35.1934   36.8088 N   0  0  0  0  0  0  0  0  0  0  0  0
    8.9994   45.4382   33.6723 H   0  0  0  0  0  0  0  0  0  0  0  0
   11.0501   46.2280   34.4980 H   0  0  0  0  0  0  0  0  0  0  0  0
   10.7759   46.9371   33.0157 H   0  0  0  0  0  0  0  0  0  0  0  0
   10.7403   44.9077   31.1833 H   0  0  0  0  0  0  0  0  0  0  0  0
    9.3633   43.8358   31.4713 H   0  0  0  0  0  0  0  0  0  0  0  0
    7.0116   44.7152   31.5837 H   0  0  0  0  0  0  0  0  0  0  0  0
   10.3472   47.1877   30.4035 H   0  0  0  0  0  0  0  0  0  0  0  0
    5.4609   46.3079   30.5018 H   0  0  0  0  0  0  0  0  0  0  0  0
    8.7929   48.7673   29.3341 H   0  0  0  0  0  0  0  0  0  0  0  0
    5.2737   49.3704   30.9260 H   0  0  0  0  0  0  0  0  0  0  0  0
    4.1110   51.2211   29.6916 H   0  0  0  0  0  0  0  0  0  0  0  0
    3.6069   49.5544   29.2303 H   0  0  0  0  0  0  0  0  0  0  0  0
    4.6710   50.4916   28.1345 H   0  0  0  0  0  0  0  0  0  0  0  0
    6.6956   50.5439   32.3055 H   0  0  0  0  0  0  0  0  0  0  0  0
    8.8885   52.9245   28.5114 H   0  0  0  0  0  0  0  0  0  0  0  0
    9.3457   54.4179   33.0066 H   0  0  0  0  0  0  0  0  0  0  0  0
   10.6341   53.1239   32.9273 H   0  0  0  0  0  0  0  0  0  0  0  0
   11.3967   41.5459   31.4725 H   0  0  0  0  0  0  0  0  0  0  0  0
    9.8298   40.7409   31.7611 H   0  0  0  0  0  0  0  0  0  0  0  0
   11.6975   39.5066   30.3481 H   0  0  0  0  0  0  0  0  0  0  0  0
   10.1076   38.2648   32.6645 H   0  0  0  0  0  0  0  0  0  0  0  0
   13.6621   37.4468   31.2209 H   0  0  0  0  0  0  0  0  0  0  0  0
    8.8974   38.6943   30.8831 H   0  0  0  0  0  0  0  0  0  0  0  0
   11.2806   36.3073   32.5170 H   0  0  0  0  0  0  0  0  0  0  0  0
   10.8493   35.7110   30.4586 H   0  0  0  0  0  0  0  0  0  0  0  0
   12.3291   38.3524   34.7444 H   0  0  0  0  0  0  0  0  0  0  0  0
   16.7559   34.1780   32.4619 H   0  0  0  0  0  0  0  0  0  0  0  0
   16.6344   34.5301   37.1414 H   0  0  0  0  0  0  0  0  0  0  0  0
   15.3532   35.7362   37.5137 H   0  0  0  0  0  0  0  0  0  0  0  0
  1  2  2  0
  1  3  1  0
  3  4  1  0
  4  5  1  0
  6  1  1  0
  7  6  1  0
  6  8  1  0
  8  9  1  0
  9 10  2  0
 11  9  1  0
 10 12  1  0
 13 11  2  0
 12 14  2  0
 14 13  1  0
 14 15  1  0
 15 16  1  0
 16 17  1  0
 16 18  1  0
 18 19  2  0
 20 18  1  0
 19 21  1  0
 22 20  2  0
 20 23  1  0
 21 24  1  0
 21 25  2  0
 25 22  1  0
 23 26  1  0
 23 27  2  0
 24 28  1  0
 25 29  1  0
 28 29  1  0
  4 30  2  0
  4 31  1  0
 32 31  1  0
 32 33  1  0
 33 34  1  0
 33 35  1  0
 34 36  1  0
 35 37  1  0
 35 38  1  0
 38 36  1  0
 36 39  1  0
 38 40  1  0
 41 39  1  0
 42 39  1  0
 43 41  2  0
 41 44  1  0
 45 42  2  0
 46 43  1  0
 44 47  2  0
 44 45  1  0
 48 46  2  0
 48 47  1  0
 47 49  1  0
  6 50  1  1
  7 51  1  0
  7 52  1  0
  8 53  1  0
  8 54  1  0
 10 55  1  0
 11 56  1  0
 12 57  1  0
 13 58  1  0
 16 59  1  1
 17 60  1  0
 17 61  1  0
 17 62  1  0
 19 63  1  0
 22 64  1  0
 28 65  1  0
 28 66  1  0
 32 67  1  0
 32 68  1  0
 33 69  1  0
 35 70  1  0
 36 71  1  0
 37 72  1  0
 38 73  1  0
 40 74  1  0
 42 75  1  0
 46 76  1  0
 49 77  1  0
 49 78  1  0
M  CHG  3   5  -1  23   1  26  -1
M  END
>  <EmbedRMS>  (401) 
0.0828522300427

$$$$

     RDKit          3D

 78 83  0  0  0  0  0  0  0  0999 V2000
   10.2805   43.7664   33.8252 C   0  0  0  0  0  0  0  0  0  0  0  0
   11.4112   43.5919   34.3668 O   0  0  0  0  0  0  0  0  0  0  0  0
    9.3620   42.7249   33.7348 O   0  0  0  0  0  0  0  0  0  0  0  0
    9.8900   41.2267   34.2944 P   0  0  0  0  0  0  0  0  0  0  0  0
   10.3728   41.4567   35.8839 O   0  0  0  0  0  0  0  0  0  0  0  0
    9.9459   45.0735   33.2113 C   0  0  1  0  0  0  0  0  0  0  0  0
   11.0267   46.0292   33.4706 N   0  0  0  0  0  0  0  0  0  0  0  0
    9.7537   44.8536   31.6951 C   0  0  0  0  0  0  0  0  0  0  0  0
    8.7955   45.8406   31.0850 C   0  0  0  0  0  0  0  0  0  0  0  0
    7.4095   45.6001   31.1003 C   0  0  0  0  0  0  0  0  0  0  0  0
    9.2819   46.9868   30.4400 C   0  0  0  0  0  0  0  0  0  0  0  0
    6.5301   46.5010   30.4847 C   0  0  0  0  0  0  0  0  0  0  0  0
    8.4014   47.8883   29.8306 C   0  0  0  0  0  0  0  0  0  0  0  0
    7.0124   47.6538   29.8479 C   0  0  0  0  0  0  0  0  0  0  0  0
    6.0662   48.5164   29.2641 O   0  0  0  0  0  0  0  0  0  0  0  0
    6.2879   49.7668   28.5997 C   0  0  2  0  0  0  0  0  0  0  0  0
    6.9268   49.5383   27.2209 C   0  0  0  0  0  0  0  0  0  0  0  0
    6.9730   50.7923   29.5034 C   0  0  0  0  0  0  0  0  0  0  0  0
    8.2605   51.3057   29.1854 C   0  0  0  0  0  0  0  0  0  0  0  0
    6.2844   51.3238   30.6466 C   0  0  0  0  0  0  0  0  0  0  0  0
    8.8167   52.2738   30.0106 C   0  0  0  0  0  0  0  0  0  0  0  0
    6.8969   52.3194   31.4404 C   0  0  0  0  0  0  0  0  0  0  0  0
    4.9512   50.9102   30.9810 N   0  0  0  0  0  0  0  0  0  0  0  0
   10.0469   52.8930   29.8983 O   0  0  0  0  0  0  0  0  0  0  0  0
    8.1649   52.7582   31.0906 C   0  0  0  0  0  0  0  0  0  0  0  0
    4.6836   49.5895   31.2514 O   0  0  0  0  0  0  0  0  0  0  0  0
    4.0935   51.7687   31.2736 O   0  0  0  0  0  0  0  0  0  0  0  0
   10.1737   53.8249   30.9808 C   0  0  0  0  0  0  0  0  0  0  0  0
    8.9490   53.7075   31.7174 O   0  0  0  0  0  0  0  0  0  0  0  0
    8.8127   40.1842   34.2128 O   0  0  0  0  0  0  0  0  0  0  0  0
   11.2415   40.7951   33.3705 O   0  0  0  0  0  0  0  0  0  0  0  0
   10.9178   40.6922   31.9983 C   0  0  0  0  0  0  0  0  0  0  0  0
   11.5175   39.3837   31.4423 C   0  0  0  0  0  0  0  0  0  0  0  0
   12.7507   39.0887   32.0753 O   0  0  0  0  0  0  0  0  0  0  0  0
   10.6027   38.1916   31.6659 C   0  0  0  0  0  0  0  0  0  0  0  0
   12.9384   37.6819   32.0278 C   0  0  0  0  0  0  0  0  0  0  0  0
    9.6371   38.0805   30.6471 O   0  0  0  0  0  0  0  0  0  0  0  0
   11.5780   37.0215   31.6935 C   0  0  0  0  0  0  0  0  0  0  0  0
   13.4844   37.2119   33.3242 N   0  0  0  0  0  0  0  0  0  0  0  0
   11.6095   36.3202   30.4679 O   0  0  0  0  0  0  0  0  0  0  0  0
   14.4797   36.3318   33.5730 C   0  0  0  0  0  0  0  0  0  0  0  0
   13.1136   37.6278   34.5691 C   0  0  0  0  0  0  0  0  0  0  0  0
   15.2073   35.6155   32.6742 N   0  0  0  0  0  0  0  0  0  0  0  0
   14.6754   36.2305   34.9184 C   0  0  0  0  0  0  0  0  0  0  0  0
   13.8213   37.0452   35.5785 N   0  0  0  0  0  0  0  0  0  0  0  0
   16.1640   34.7603   33.1549 C   0  0  0  0  0  0  0  0  0  0  0  0
   15.6524   35.3507   35.4132 C   0  0  0  0  0  0  0  0  0  0  0  0
   16.3794   34.6317   34.5044 N   0  0  0  0  0  0  0  0  0  0  0  0
   15.8999   35.1934   36.8091 N   0  0  0  0  0  0  0  0  0  0  0  0
    8.9996   45.4382   33.6723 H   0  0  0  0  0  0  0  0  0  0  0  0
   11.0503   46.2279   34.4979 H   0  0  0  0  0  0  0  0  0  0  0  0
   10.7763   46.9368   33.0155 H   0  0  0  0  0  0  0  0  0  0  0  0
   10.7408   44.9069   31.1836 H   0  0  0  0  0  0  0  0  0  0  0  0
    9.3639   43.8349   31.4717 H   0  0  0  0  0  0  0  0  0  0  0  0
    7.0134   44.7160   31.5844 H   0  0  0  0  0  0  0  0  0  0  0  0
   10.3463   47.1848   30.4057 H   0  0  0  0  0  0  0  0  0  0  0  0
    5.4657   46.3037   30.5067 H   0  0  0  0  0  0  0  0  0  0  0  0
    8.8234   48.7506   29.3489 H   0  0  0  0  0  0  0  0  0  0  0  0
    5.2832   50.1859   28.3741 H   0  0  0  0  0  0  0  0  0  0  0  0
    7.0283   50.5035   26.6803 H   0  0  0  0  0  0  0  0  0  0  0  0
    7.9197   49.0538   27.2949 H   0  0  0  0  0  0  0  0  0  0  0  0
    6.2718   48.8748   26.6172 H   0  0  0  0  0  0  0  0  0  0  0  0
    8.8256   50.9697   28.3281 H   0  0  0  0  0  0  0  0  0  0  0  0
    6.3961   52.7357   32.3051 H   0  0  0  0  0  0  0  0  0  0  0  0
   11.0358   53.5509   31.6245 H   0  0  0  0  0  0  0  0  0  0  0  0
   10.2872   54.8570   30.5878 H   0  0  0  0  0  0  0  0  0  0  0  0
    9.8290   40.7408   31.7625 H   0  0  0  0  0  0  0  0  0  0  0  0
   11.3950   41.5477   31.4741 H   0  0  0  0  0  0  0  0  0  0  0  0
   11.6981   39.5114   30.3500 H   0  0  0  0  0  0  0  0  0  0  0  0
   10.1117   38.2604   32.6661 H   0  0  0  0  0  0  0  0  0  0  0  0
   13.6767   37.4556   31.2267 H   0  0  0  0  0  0  0  0  0  0  0  0
    8.8960   38.6950   30.8873 H   0  0  0  0  0  0  0  0  0  0  0  0
   11.2791   36.3072   32.4922 H   0  0  0  0  0  0  0  0  0  0  0  0
   11.8828   36.9598   29.7589 H   0  0  0  0  0  0  0  0  0  0  0  0
   12.3300   38.3539   34.7446 H   0  0  0  0  0  0  0  0  0  0  0  0
   16.7561   34.1785   32.4622 H   0  0  0  0  0  0  0  0  0  0  0  0
   15.3531   35.7360   37.5140 H   0  0  0  0  0  0  0  0  0  0  0  0
   16.6346   34.5303   37.1417 H   0  0  0  0  0  0  0  0  0  0  0  0
  1  2  2  0
  1  3  1  0
  3  4  1  0
  4  5  1  0
  6  1  1  0
  7  6  1  0
  6  8  1  0
  8  9  1  0
  9 10  2  0
 11  9  1  0
 10 12  1  0
 13 11  2  0
 12 14  2  0
 14 13  1  0
 14 15  1  0
 15 16  1  0
 16 17  1  0
 16 18  1  0
 18 19  2  0
 20 18  1  0
 19 21  1  0
 22 20  2  0
 20 23  1  0
 21 24  1  0
 21 25  2  0
 25 22  1  0
 23 26  1  0
 23 27  2  0
 24 28  1  0
 25 29  1  0
 28 29  1  0
  4 30  2  0
  4 31  1  0
 32 31  1  0
 32 33  1  0
 33 34  1  0
 33 35  1  0
 34 36  1  0
 35 37  1  0
 35 38  1  0
 38 36  1  0
 36 39  1  0
 38 40  1  0
 41 39  1  0
 42 39  1  0
 43 41  2  0
 41 44  1  0
 45 42  2  0
 46 43  1  0
 44 47  2  0
 44 45  1  0
 48 46  2  0
 48 47  1  0
 47 49  1  0
  6 50  1  1
  7 51  1  0
  7 52  1  0
  8 53  1  0
  8 54  1  0
 10 55  1  0
 11 56  1  0
 12 57  1  0
 13 58  1  0
 16 59  1  6
 17 60  1  0
 17 61  1  0
 17 62  1  0
 19 63  1  0
 22 64  1  0
 28 65  1  0
 28 66  1  0
 32 67  1  0
 32 68  1  0
 33 69  1  0
 35 70  1  0
 36 71  1  0
 37 72  1  0
 38 73  1  0
 40 74  1  0
 42 75  1  0
 46 76  1  0
 49 77  1  0
 49 78  1  0
M  CHG  3   5  -1  23   1  26  -1
M  END
>  <EmbedRMS>  (402) 
0.0817883487

$$$$

     RDKit          3D

 78 83  0  0  0  0  0  0  0  0999 V2000
   10.2803   43.7665   33.8252 C   0  0  0  0  0  0  0  0  0  0  0  0
   11.4111   43.5918   34.3667 O   0  0  0  0  0  0  0  0  0  0  0  0
    9.3616   42.7251   33.7349 O   0  0  0  0  0  0  0  0  0  0  0  0
    9.8896   41.2269   34.2946 P   0  0  0  0  0  0  0  0  0  0  0  0
   10.3732   41.4568   35.8838 O   0  0  0  0  0  0  0  0  0  0  0  0
    9.9459   45.0736   33.2114 C   0  0  1  0  0  0  0  0  0  0  0  0
   11.0267   46.0291   33.4706 N   0  0  0  0  0  0  0  0  0  0  0  0
    9.7534   44.8538   31.6952 C   0  0  0  0  0  0  0  0  0  0  0  0
    8.7954   45.8412   31.0853 C   0  0  0  0  0  0  0  0  0  0  0  0
    7.4088   45.6005   31.1006 C   0  0  0  0  0  0  0  0  0  0  0  0
    9.2828   46.9874   30.4399 C   0  0  0  0  0  0  0  0  0  0  0  0
    6.5286   46.5007   30.4846 C   0  0  0  0  0  0  0  0  0  0  0  0
    8.4028   47.8888   29.8294 C   0  0  0  0  0  0  0  0  0  0  0  0
    7.0129   47.6524   29.8486 C   0  0  0  0  0  0  0  0  0  0  0  0
    6.0811   48.5157   29.2483 O   0  0  0  0  0  0  0  0  0  0  0  0
    6.3702   49.7849   28.6537 C   0  0  2  0  0  0  0  0  0  0  0  0
    6.6464   50.8277   29.7429 C   0  0  0  0  0  0  0  0  0  0  0  0
    5.1835   50.2216   27.8158 C   0  0  0  0  0  0  0  0  0  0  0  0
    3.8823   50.0780   28.3585 C   0  0  0  0  0  0  0  0  0  0  0  0
    5.3342   50.7339   26.4840 C   0  0  0  0  0  0  0  0  0  0  0  0
    2.7914   50.4055   27.5643 C   0  0  0  0  0  0  0  0  0  0  0  0
    4.1847   51.0348   25.7171 C   0  0  0  0  0  0  0  0  0  0  0  0
    6.6289   50.9788   25.9123 N   0  0  0  0  0  0  0  0  0  0  0  0
    1.4479   50.3348   27.8788 O   0  0  0  0  0  0  0  0  0  0  0  0
    2.9359   50.8583   26.2979 C   0  0  0  0  0  0  0  0  0  0  0  0
    7.5761   51.6781   26.6241 O   0  0  0  0  0  0  0  0  0  0  0  0
    6.8246   50.7659   24.6979 O   0  0  0  0  0  0  0  0  0  0  0  0
    0.7022   50.7728   26.7348 C   0  0  0  0  0  0  0  0  0  0  0  0
    1.6911   51.0979   25.7483 O   0  0  0  0  0  0  0  0  0  0  0  0
    8.8122   40.1844   34.2136 O   0  0  0  0  0  0  0  0  0  0  0  0
   11.2401   40.7949   33.3698 O   0  0  0  0  0  0  0  0  0  0  0  0
   10.9143   40.6914   31.9981 C   0  0  0  0  0  0  0  0  0  0  0  0
   11.5269   39.3911   31.4385 C   0  0  0  0  0  0  0  0  0  0  0  0
   12.7519   39.0911   32.0837 O   0  0  0  0  0  0  0  0  0  0  0  0
   10.6113   38.1932   31.6451 C   0  0  0  0  0  0  0  0  0  0  0  0
   12.9413   37.6838   32.0297 C   0  0  0  0  0  0  0  0  0  0  0  0
    9.6064   38.0877   30.6599 O   0  0  0  0  0  0  0  0  0  0  0  0
   11.5822   37.0197   31.6877 C   0  0  0  0  0  0  0  0  0  0  0  0
   13.4840   37.2105   33.3254 N   0  0  0  0  0  0  0  0  0  0  0  0
   11.6179   36.3072   30.4690 O   0  0  0  0  0  0  0  0  0  0  0  0
   14.4797   36.3309   33.5738 C   0  0  0  0  0  0  0  0  0  0  0  0
   13.1137   37.6269   34.5702 C   0  0  0  0  0  0  0  0  0  0  0  0
   15.2074   35.6152   32.6747 N   0  0  0  0  0  0  0  0  0  0  0  0
   14.6756   36.2298   34.9190 C   0  0  0  0  0  0  0  0  0  0  0  0
   13.8217   37.0445   35.5793 N   0  0  0  0  0  0  0  0  0  0  0  0
   16.1643   34.7603   33.1551 C   0  0  0  0  0  0  0  0  0  0  0  0
   15.6528   35.3503   35.4136 C   0  0  0  0  0  0  0  0  0  0  0  0
   16.3798   34.6316   34.5045 N   0  0  0  0  0  0  0  0  0  0  0  0
   15.9004   35.1930   36.8094 N   0  0  0  0  0  0  0  0  0  0  0  0
    8.9996   45.4383   33.6726 H   0  0  0  0  0  0  0  0  0  0  0  0
   11.0506   46.2277   34.4980 H   0  0  0  0  0  0  0  0  0  0  0  0
   10.7765   46.9368   33.0156 H   0  0  0  0  0  0  0  0  0  0  0  0
   10.7404   44.9068   31.1836 H   0  0  0  0  0  0  0  0  0  0  0  0
    9.3632   43.8352   31.4718 H   0  0  0  0  0  0  0  0  0  0  0  0
    7.0131   44.7160   31.5844 H   0  0  0  0  0  0  0  0  0  0  0  0
   10.3472   47.1847   30.4053 H   0  0  0  0  0  0  0  0  0  0  0  0
    5.4644   46.3027   30.5034 H   0  0  0  0  0  0  0  0  0  0  0  0
    8.8203   48.7571   29.3414 H   0  0  0  0  0  0  0  0  0  0  0  0
    7.2632   49.6759   28.0074 H   0  0  0  0  0  0  0  0  0  0  0  0
    6.8241   51.8242   29.2858 H   0  0  0  0  0  0  0  0  0  0  0  0
    7.5460   50.5513   30.3294 H   0  0  0  0  0  0  0  0  0  0  0  0
    5.7842   50.9003   30.4394 H   0  0  0  0  0  0  0  0  0  0  0  0
    3.7255   49.7050   29.3628 H   0  0  0  0  0  0  0  0  0  0  0  0
    4.2647   51.4201   24.7088 H   0  0  0  0  0  0  0  0  0  0  0  0
    0.1035   51.6727   26.9881 H   0  0  0  0  0  0  0  0  0  0  0  0
    0.0480   49.9549   26.3665 H   0  0  0  0  0  0  0  0  0  0  0  0
    9.8233   40.7200   31.7652 H   0  0  0  0  0  0  0  0  0  0  0  0
   11.3775   41.5548   31.4741 H   0  0  0  0  0  0  0  0  0  0  0  0
   11.7312   39.5362   30.3532 H   0  0  0  0  0  0  0  0  0  0  0  0
   10.1202   38.2696   32.6410 H   0  0  0  0  0  0  0  0  0  0  0  0
   13.6850   37.4639   31.2321 H   0  0  0  0  0  0  0  0  0  0  0  0
   10.0250   38.1792   29.7654 H   0  0  0  0  0  0  0  0  0  0  0  0
   11.2757   36.3135   32.4907 H   0  0  0  0  0  0  0  0  0  0  0  0
   11.9838   36.9111   29.7708 H   0  0  0  0  0  0  0  0  0  0  0  0
   12.3307   38.3536   34.7458 H   0  0  0  0  0  0  0  0  0  0  0  0
   16.7566   34.1787   32.4622 H   0  0  0  0  0  0  0  0  0  0  0  0
   15.3535   35.7355   37.5144 H   0  0  0  0  0  0  0  0  0  0  0  0
   16.6353   34.5301   37.1418 H   0  0  0  0  0  0  0  0  0  0  0  0
  1  2  2  0
  1  3  1  0
  3  4  1  0
  4  5  1  0
  6  1  1  0
  7  6  1  0
  6  8  1  0
  8  9  1  0
  9 10  2  0
 11  9  1  0
 10 12  1  0
 13 11  2  0
 12 14  2  0
 14 13  1  0
 14 15  1  0
 15 16  1  0
 16 17  1  0
 16 18  1  0
 18 19  2  0
 20 18  1  0
 19 21  1  0
 22 20  2  0
 20 23  1  0
 21 24  1  0
 21 25  2  0
 25 22  1  0
 23 26  1  0
 23 27  2  0
 24 28  1  0
 25 29  1  0
 28 29  1  0
  4 30  2  0
  4 31  1  0
 32 31  1  0
 32 33  1  0
 33 34  1  0
 33 35  1  0
 34 36  1  0
 35 37  1  0
 35 38  1  0
 38 36  1  0
 36 39  1  0
 38 40  1  0
 41 39  1  0
 42 39  1  0
 43 41  2  0
 41 44  1  0
 45 42  2  0
 46 43  1  0
 44 47  2  0
 44 45  1  0
 48 46  2  0
 48 47  1  0
 47 49  1  0
  6 50  1  1
  7 51  1  0
  7 52  1  0
  8 53  1  0
  8 54  1  0
 10 55  1  0
 11 56  1  0
 12 57  1  0
 13 58  1  0
 16 59  1  6
 17 60  1  0
 17 61  1  0
 17 62  1  0
 19 63  1  0
 22 64  1  0
 28 65  1  0
 28 66  1  0
 32 67  1  0
 32 68  1  0
 33 69  1  0
 35 70  1  0
 36 71  1  0
 37 72  1  0
 38 73  1  0
 40 74  1  0
 42 75  1  0
 46 76  1  0
 49 77  1  0
 49 78  1  0
M  CHG  3   5  -1  23   1  26  -1
M  END
>  <EmbedRMS>  (403) 
0.0806351419443

$$$$

     RDKit          3D

 78 83  0  0  0  0  0  0  0  0999 V2000
   10.2841   43.7625   33.8274 C   0  0  0  0  0  0  0  0  0  0  0  0
   11.4106   43.5861   34.3765 O   0  0  0  0  0  0  0  0  0  0  0  0
    9.3635   42.7233   33.7349 O   0  0  0  0  0  0  0  0  0  0  0  0
    9.8899   41.2247   34.2939 P   0  0  0  0  0  0  0  0  0  0  0  0
   10.3723   41.4546   35.8836 O   0  0  0  0  0  0  0  0  0  0  0  0
    9.9551   45.0699   33.2062 C   0  0  1  0  0  0  0  0  0  0  0  0
   11.0198   46.0482   33.4572 N   0  0  0  0  0  0  0  0  0  0  0  0
    9.7507   44.8509   31.6921 C   0  0  0  0  0  0  0  0  0  0  0  0
    8.7945   45.8417   31.0867 C   0  0  0  0  0  0  0  0  0  0  0  0
    7.4081   45.6001   31.0990 C   0  0  0  0  0  0  0  0  0  0  0  0
    9.2829   46.9885   30.4433 C   0  0  0  0  0  0  0  0  0  0  0  0
    6.5285   46.5006   30.4834 C   0  0  0  0  0  0  0  0  0  0  0  0
    8.4030   47.8899   29.8314 C   0  0  0  0  0  0  0  0  0  0  0  0
    7.0131   47.6544   29.8522 C   0  0  0  0  0  0  0  0  0  0  0  0
    6.0801   48.5231   29.2627 O   0  0  0  0  0  0  0  0  0  0  0  0
    6.3580   49.8137   28.7132 C   0  0  2  0  0  0  0  0  0  0  0  0
    6.6690   50.8328   29.8164 C   0  0  0  0  0  0  0  0  0  0  0  0
    5.1921   50.2986   27.8680 C   0  0  0  0  0  0  0  0  0  0  0  0
    5.4947   51.1109   26.7477 C   0  0  0  0  0  0  0  0  0  0  0  0
    3.8190   49.9556   28.1309 C   0  0  0  0  0  0  0  0  0  0  0  0
    4.4569   51.5262   25.9244 C   0  0  0  0  0  0  0  0  0  0  0  0
    2.8087   50.3960   27.2463 C   0  0  0  0  0  0  0  0  0  0  0  0
    3.4275   49.1671   29.2652 N   0  0  0  0  0  0  0  0  0  0  0  0
    4.5229   52.3080   24.7871 O   0  0  0  0  0  0  0  0  0  0  0  0
    3.1715   51.1811   26.1611 C   0  0  0  0  0  0  0  0  0  0  0  0
    2.4368   48.2220   29.1271 O   0  0  0  0  0  0  0  0  0  0  0  0
    3.7993   49.4849   30.4128 O   0  0  0  0  0  0  0  0  0  0  0  0
    3.1909   52.4631   24.2789 C   0  0  0  0  0  0  0  0  0  0  0  0
    2.3592   51.7280   25.1864 O   0  0  0  0  0  0  0  0  0  0  0  0
    8.8117   40.1833   34.2120 O   0  0  0  0  0  0  0  0  0  0  0  0
   11.2414   40.7930   33.3698 O   0  0  0  0  0  0  0  0  0  0  0  0
   10.9179   40.6900   31.9972 C   0  0  0  0  0  0  0  0  0  0  0  0
   11.5181   39.3812   31.4407 C   0  0  0  0  0  0  0  0  0  0  0  0
   12.7499   39.0870   32.0743 O   0  0  0  0  0  0  0  0  0  0  0  0
   10.6046   38.1889   31.6654 C   0  0  0  0  0  0  0  0  0  0  0  0
   12.9345   37.6801   32.0290 C   0  0  0  0  0  0  0  0  0  0  0  0
    9.6418   38.0756   30.6441 O   0  0  0  0  0  0  0  0  0  0  0  0
   11.5743   37.0169   31.7044 C   0  0  0  0  0  0  0  0  0  0  0  0
   13.4853   37.2128   33.3242 N   0  0  0  0  0  0  0  0  0  0  0  0
   11.6083   36.3408   30.4678 O   0  0  0  0  0  0  0  0  0  0  0  0
   14.4801   36.3321   33.5728 C   0  0  0  0  0  0  0  0  0  0  0  0
   13.1139   37.6279   34.5692 C   0  0  0  0  0  0  0  0  0  0  0  0
   15.2071   35.6154   32.6740 N   0  0  0  0  0  0  0  0  0  0  0  0
   14.6755   36.2305   34.9182 C   0  0  0  0  0  0  0  0  0  0  0  0
   13.8215   37.0451   35.5785 N   0  0  0  0  0  0  0  0  0  0  0  0
   16.1639   34.7603   33.1548 C   0  0  0  0  0  0  0  0  0  0  0  0
   15.6524   35.3507   35.4131 C   0  0  0  0  0  0  0  0  0  0  0  0
   16.3792   34.6316   34.5043 N   0  0  0  0  0  0  0  0  0  0  0  0
   15.8996   35.1935   36.8091 N   0  0  0  0  0  0  0  0  0  0  0  0
    9.0099   45.4348   33.6664 H   0  0  0  0  0  0  0  0  0  0  0  0
   11.1130   46.1994   34.4886 H   0  0  0  0  0  0  0  0  0  0  0  0
   11.9350   45.6937   33.0926 H   0  0  0  0  0  0  0  0  0  0  0  0
    9.3522   43.8340   31.4760 H   0  0  0  0  0  0  0  0  0  0  0  0
   10.7309   44.8929   31.1673 H   0  0  0  0  0  0  0  0  0  0  0  0
    7.0121   44.7142   31.5801 H   0  0  0  0  0  0  0  0  0  0  0  0
   10.3474   47.1860   30.4122 H   0  0  0  0  0  0  0  0  0  0  0  0
    5.4640   46.3037   30.5015 H   0  0  0  0  0  0  0  0  0  0  0  0
    8.8192   48.7599   29.3450 H   0  0  0  0  0  0  0  0  0  0  0  0
    7.2469   49.7271   28.0506 H   0  0  0  0  0  0  0  0  0  0  0  0
    5.7898   50.9990   30.4704 H   0  0  0  0  0  0  0  0  0  0  0  0
    7.5114   50.4843   30.4476 H   0  0  0  0  0  0  0  0  0  0  0  0
    6.9588   51.8044   29.3624 H   0  0  0  0  0  0  0  0  0  0  0  0
    6.5122   51.4022   26.5186 H   0  0  0  0  0  0  0  0  0  0  0  0
    1.7679   50.1501   27.4138 H   0  0  0  0  0  0  0  0  0  0  0  0
    2.9026   53.5351   24.2775 H   0  0  0  0  0  0  0  0  0  0  0  0
    3.1168   52.0338   23.2580 H   0  0  0  0  0  0  0  0  0  0  0  0
   11.3947   41.5456   31.4731 H   0  0  0  0  0  0  0  0  0  0  0  0
    9.8291   40.7387   31.7614 H   0  0  0  0  0  0  0  0  0  0  0  0
   11.6992   39.5069   30.3483 H   0  0  0  0  0  0  0  0  0  0  0  0
   10.1093   38.2629   32.6632 H   0  0  0  0  0  0  0  0  0  0  0  0
   13.6660   37.4512   31.2223 H   0  0  0  0  0  0  0  0  0  0  0  0
    8.9013   38.6928   30.8793 H   0  0  0  0  0  0  0  0  0  0  0  0
   11.2651   36.3081   32.5086 H   0  0  0  0  0  0  0  0  0  0  0  0
   12.1375   35.5142   30.6162 H   0  0  0  0  0  0  0  0  0  0  0  0
   12.3296   38.3531   34.7447 H   0  0  0  0  0  0  0  0  0  0  0  0
   16.7560   34.1785   32.4621 H   0  0  0  0  0  0  0  0  0  0  0  0
   16.6340   34.5302   37.1420 H   0  0  0  0  0  0  0  0  0  0  0  0
   15.3526   35.7363   37.5137 H   0  0  0  0  0  0  0  0  0  0  0  0
  1  2  2  0
  1  3  1  0
  3  4  1  0
  4  5  1  0
  6  1  1  0
  7  6  1  0
  6  8  1  0
  8  9  1  0
  9 10  2  0
 11  9  1  0
 10 12  1  0
 13 11  2  0
 12 14  2  0
 14 13  1  0
 14 15  1  0
 15 16  1  0
 16 17  1  0
 16 18  1  0
 18 19  2  0
 20 18  1  0
 19 21  1  0
 22 20  2  0
 20 23  1  0
 21 24  1  0
 21 25  2  0
 25 22  1  0
 23 26  1  0
 23 27  2  0
 24 28  1  0
 25 29  1  0
 28 29  1  0
  4 30  2  0
  4 31  1  0
 32 31  1  0
 32 33  1  0
 33 34  1  0
 33 35  1  0
 34 36  1  0
 35 37  1  0
 35 38  1  0
 38 36  1  0
 36 39  1  0
 38 40  1  0
 41 39  1  0
 42 39  1  0
 43 41  2  0
 41 44  1  0
 45 42  2  0
 46 43  1  0
 44 47  2  0
 44 45  1  0
 48 46  2  0
 48 47  1  0
 47 49  1  0
  6 50  1  1
  7 51  1  0
  7 52  1  0
  8 53  1  0
  8 54  1  0
 10 55  1  0
 11 56  1  0
 12 57  1  0
 13 58  1  0
 16 59  1  6
 17 60  1  0
 17 61  1  0
 17 62  1  0
 19 63  1  0
 22 64  1  0
 28 65  1  0
 28 66  1  0
 32 67  1  0
 32 68  1  0
 33 69  1  0
 35 70  1  0
 36 71  1  0
 37 72  1  0
 38 73  1  0
 40 74  1  0
 42 75  1  0
 46 76  1  0
 49 77  1  0
 49 78  1  0
M  CHG  3   5  -1  23   1  26  -1
M  END
>  <EmbedRMS>  (404) 
0.0837493757959

$$$$

     RDKit          3D

 78 83  0  0  0  0  0  0  0  0999 V2000
   10.2838   43.7627   33.8276 C   0  0  0  0  0  0  0  0  0  0  0  0
   11.4103   43.5864   34.3766 O   0  0  0  0  0  0  0  0  0  0  0  0
    9.3631   42.7236   33.7353 O   0  0  0  0  0  0  0  0  0  0  0  0
    9.8898   41.2248   34.2935 P   0  0  0  0  0  0  0  0  0  0  0  0
   10.3734   41.4543   35.8829 O   0  0  0  0  0  0  0  0  0  0  0  0
    9.9548   45.0701   33.2064 C   0  0  1  0  0  0  0  0  0  0  0  0
   11.0197   46.0482   33.4572 N   0  0  0  0  0  0  0  0  0  0  0  0
    9.7506   44.8512   31.6923 C   0  0  0  0  0  0  0  0  0  0  0  0
    8.7944   45.8419   31.0869 C   0  0  0  0  0  0  0  0  0  0  0  0
    7.4077   45.6003   31.1002 C   0  0  0  0  0  0  0  0  0  0  0  0
    9.2827   46.9891   30.4442 C   0  0  0  0  0  0  0  0  0  0  0  0
    6.5260   46.4994   30.4847 C   0  0  0  0  0  0  0  0  0  0  0  0
    8.4008   47.8880   29.8328 C   0  0  0  0  0  0  0  0  0  0  0  0
    7.0192   47.6558   29.8471 C   0  0  0  0  0  0  0  0  0  0  0  0
    6.1812   48.5942   29.2226 O   0  0  0  0  0  0  0  0  0  0  0  0
    4.7521   48.5357   29.1868 C   0  0  2  0  0  0  0  0  0  0  0  0
    4.2414   49.6111   28.2308 C   0  0  0  0  0  0  0  0  0  0  0  0
    4.1586   48.7589   30.5683 C   0  0  0  0  0  0  0  0  0  0  0  0
    4.7748   49.6970   31.4336 C   0  0  0  0  0  0  0  0  0  0  0  0
    2.9407   48.1249   30.9790 C   0  0  0  0  0  0  0  0  0  0  0  0
    4.1839   49.9532   32.6640 C   0  0  0  0  0  0  0  0  0  0  0  0
    2.3772   48.4358   32.2367 C   0  0  0  0  0  0  0  0  0  0  0  0
    2.2582   47.1907   30.1320 N   0  0  0  0  0  0  0  0  0  0  0  0
    4.6086   50.8134   33.6583 O   0  0  0  0  0  0  0  0  0  0  0  0
    3.0358   49.3496   33.0485 C   0  0  0  0  0  0  0  0  0  0  0  0
    2.8785   46.0195   29.7652 O   0  0  0  0  0  0  0  0  0  0  0  0
    1.0271   47.3001   29.9586 O   0  0  0  0  0  0  0  0  0  0  0  0
    3.6665   50.7417   34.7372 C   0  0  0  0  0  0  0  0  0  0  0  0
    2.6781   49.7961   34.3061 O   0  0  0  0  0  0  0  0  0  0  0  0
    8.8115   40.1834   34.2126 O   0  0  0  0  0  0  0  0  0  0  0  0
   11.2401   40.7936   33.3673 O   0  0  0  0  0  0  0  0  0  0  0  0
   10.9134   40.6864   31.9955 C   0  0  0  0  0  0  0  0  0  0  0  0
   11.5166   39.3786   31.4404 C   0  0  0  0  0  0  0  0  0  0  0  0
   12.7486   39.0849   32.0734 O   0  0  0  0  0  0  0  0  0  0  0  0
   10.6039   38.1883   31.6669 C   0  0  0  0  0  0  0  0  0  0  0  0
   12.9329   37.6775   32.0284 C   0  0  0  0  0  0  0  0  0  0  0  0
    9.6373   38.0938   30.6484 O   0  0  0  0  0  0  0  0  0  0  0  0
   11.5737   37.0140   31.7055 C   0  0  0  0  0  0  0  0  0  0  0  0
   13.4853   37.2120   33.3238 N   0  0  0  0  0  0  0  0  0  0  0  0
   11.6210   36.3379   30.4683 O   0  0  0  0  0  0  0  0  0  0  0  0
   14.4804   36.3319   33.5726 C   0  0  0  0  0  0  0  0  0  0  0  0
   13.1141   37.6275   34.5689 C   0  0  0  0  0  0  0  0  0  0  0  0
   15.2075   35.6152   32.6740 N   0  0  0  0  0  0  0  0  0  0  0  0
   14.6761   36.2306   34.9181 C   0  0  0  0  0  0  0  0  0  0  0  0
   13.8218   37.0451   35.5783 N   0  0  0  0  0  0  0  0  0  0  0  0
   16.1642   34.7600   33.1548 C   0  0  0  0  0  0  0  0  0  0  0  0
   15.6527   35.3506   35.4131 C   0  0  0  0  0  0  0  0  0  0  0  0
   16.3795   34.6315   34.5043 N   0  0  0  0  0  0  0  0  0  0  0  0
   15.9000   35.1933   36.8090 N   0  0  0  0  0  0  0  0  0  0  0  0
    9.0097   45.4349   33.6669 H   0  0  0  0  0  0  0  0  0  0  0  0
   11.9349   45.6934   33.0930 H   0  0  0  0  0  0  0  0  0  0  0  0
   11.1130   46.1994   34.4885 H   0  0  0  0  0  0  0  0  0  0  0  0
   10.7310   44.8933   31.1677 H   0  0  0  0  0  0  0  0  0  0  0  0
    9.3519   43.8345   31.4758 H   0  0  0  0  0  0  0  0  0  0  0  0
    7.0126   44.7148   31.5826 H   0  0  0  0  0  0  0  0  0  0  0  0
   10.3466   47.1894   30.4145 H   0  0  0  0  0  0  0  0  0  0  0  0
    5.4686   46.2838   30.5131 H   0  0  0  0  0  0  0  0  0  0  0  0
    8.7934   48.7710   29.3446 H   0  0  0  0  0  0  0  0  0  0  0  0
    4.4556   47.5564   28.7637 H   0  0  0  0  0  0  0  0  0  0  0  0
    4.5471   50.6207   28.5803 H   0  0  0  0  0  0  0  0  0  0  0  0
    4.6631   49.4436   27.2170 H   0  0  0  0  0  0  0  0  0  0  0  0
    3.1330   49.5699   28.1624 H   0  0  0  0  0  0  0  0  0  0  0  0
    5.6797   50.2205   31.1523 H   0  0  0  0  0  0  0  0  0  0  0  0
    1.4582   47.9716   32.5710 H   0  0  0  0  0  0  0  0  0  0  0  0
    4.1663   50.3796   35.6601 H   0  0  0  0  0  0  0  0  0  0  0  0
    3.1992   51.7346   34.9056 H   0  0  0  0  0  0  0  0  0  0  0  0
   11.3830   41.5438   31.4675 H   0  0  0  0  0  0  0  0  0  0  0  0
    9.8226   40.7225   31.7629 H   0  0  0  0  0  0  0  0  0  0  0  0
   11.6978   39.5037   30.3478 H   0  0  0  0  0  0  0  0  0  0  0  0
   10.1084   38.2786   32.6626 H   0  0  0  0  0  0  0  0  0  0  0  0
   13.6638   37.4472   31.2214 H   0  0  0  0  0  0  0  0  0  0  0  0
    8.9763   37.4190   30.9532 H   0  0  0  0  0  0  0  0  0  0  0  0
   11.2821   36.3054   32.5171 H   0  0  0  0  0  0  0  0  0  0  0  0
   10.8658   35.6935   30.4652 H   0  0  0  0  0  0  0  0  0  0  0  0
   12.3293   38.3522   34.7444 H   0  0  0  0  0  0  0  0  0  0  0  0
   16.7561   34.1778   32.4621 H   0  0  0  0  0  0  0  0  0  0  0  0
   16.6345   34.5300   37.1416 H   0  0  0  0  0  0  0  0  0  0  0  0
   15.3533   35.7361   37.5138 H   0  0  0  0  0  0  0  0  0  0  0  0
  1  2  2  0
  1  3  1  0
  3  4  1  0
  4  5  1  0
  6  1  1  0
  7  6  1  0
  6  8  1  0
  8  9  1  0
  9 10  2  0
 11  9  1  0
 10 12  1  0
 13 11  2  0
 12 14  2  0
 14 13  1  0
 14 15  1  0
 15 16  1  0
 16 17  1  0
 16 18  1  0
 18 19  2  0
 20 18  1  0
 19 21  1  0
 22 20  2  0
 20 23  1  0
 21 24  1  0
 21 25  2  0
 25 22  1  0
 23 26  1  0
 23 27  2  0
 24 28  1  0
 25 29  1  0
 28 29  1  0
  4 30  2  0
  4 31  1  0
 32 31  1  0
 32 33  1  0
 33 34  1  0
 33 35  1  0
 34 36  1  0
 35 37  1  0
 35 38  1  0
 38 36  1  0
 36 39  1  0
 38 40  1  0
 41 39  1  0
 42 39  1  0
 43 41  2  0
 41 44  1  0
 45 42  2  0
 46 43  1  0
 44 47  2  0
 44 45  1  0
 48 46  2  0
 48 47  1  0
 47 49  1  0
  6 50  1  1
  7 51  1  0
  7 52  1  0
  8 53  1  0
  8 54  1  0
 10 55  1  0
 11 56  1  0
 12 57  1  0
 13 58  1  0
 16 59  1  6
 17 60  1  0
 17 61  1  0
 17 62  1  0
 19 63  1  0
 22 64  1  0
 28 65  1  0
 28 66  1  0
 32 67  1  0
 32 68  1  0
 33 69  1  0
 35 70  1  0
 36 71  1  0
 37 72  1  0
 38 73  1  0
 40 74  1  0
 42 75  1  0
 46 76  1  0
 49 77  1  0
 49 78  1  0
M  CHG  3   5  -1  23   1  26  -1
M  END
>  <EmbedRMS>  (405) 
0.0834396153635

$$$$

     RDKit          3D

 78 83  0  0  0  0  0  0  0  0999 V2000
   10.2835   43.7661   33.8256 C   0  0  0  0  0  0  0  0  0  0  0  0
   11.4102   43.5930   34.3752 O   0  0  0  0  0  0  0  0  0  0  0  0
    9.3637   42.7255   33.7350 O   0  0  0  0  0  0  0  0  0  0  0  0
    9.8902   41.2267   34.2942 P   0  0  0  0  0  0  0  0  0  0  0  0
   10.3736   41.4560   35.8836 O   0  0  0  0  0  0  0  0  0  0  0  0
    9.9547   45.0694   33.2035 C   0  0  1  0  0  0  0  0  0  0  0  0
   11.0274   46.0321   33.4756 N   0  0  0  0  0  0  0  0  0  0  0  0
    9.7466   44.8480   31.6876 C   0  0  0  0  0  0  0  0  0  0  0  0
    8.7923   45.8408   31.0844 C   0  0  0  0  0  0  0  0  0  0  0  0
    7.4055   45.6017   31.0993 C   0  0  0  0  0  0  0  0  0  0  0  0
    9.2822   46.9878   30.4424 C   0  0  0  0  0  0  0  0  0  0  0  0
    6.5267   46.5035   30.4842 C   0  0  0  0  0  0  0  0  0  0  0  0
    8.4030   47.8900   29.8322 C   0  0  0  0  0  0  0  0  0  0  0  0
    7.0142   47.6524   29.8465 C   0  0  0  0  0  0  0  0  0  0  0  0
    6.0892   48.5200   29.2428 O   0  0  0  0  0  0  0  0  0  0  0  0
    6.4180   49.7055   28.5123 C   0  0  2  0  0  0  0  0  0  0  0  0
    5.1313   50.4735   28.2198 C   0  0  0  0  0  0  0  0  0  0  0  0
    7.1183   49.3688   27.2060 C   0  0  0  0  0  0  0  0  0  0  0  0
    6.7021   48.2232   26.4828 C   0  0  0  0  0  0  0  0  0  0  0  0
    8.1130   50.2301   26.6379 C   0  0  0  0  0  0  0  0  0  0  0  0
    7.2920   47.9642   25.2525 C   0  0  0  0  0  0  0  0  0  0  0  0
    8.6677   49.9242   25.3751 C   0  0  0  0  0  0  0  0  0  0  0  0
    8.5500   51.4182   27.3111 N   0  0  0  0  0  0  0  0  0  0  0  0
    7.0497   46.9142   24.3879 O   0  0  0  0  0  0  0  0  0  0  0  0
    8.2330   48.7787   24.7219 C   0  0  0  0  0  0  0  0  0  0  0  0
    9.1671   51.3231   28.5364 O   0  0  0  0  0  0  0  0  0  0  0  0
    8.6260   52.4925   26.6803 O   0  0  0  0  0  0  0  0  0  0  0  0
    7.8962   47.0803   23.2422 C   0  0  0  0  0  0  0  0  0  0  0  0
    8.6344   48.2834   23.4962 O   0  0  0  0  0  0  0  0  0  0  0  0
    8.8121   40.1850   34.2131 O   0  0  0  0  0  0  0  0  0  0  0  0
   11.2404   40.7941   33.3690 O   0  0  0  0  0  0  0  0  0  0  0  0
   10.9143   40.6898   31.9972 C   0  0  0  0  0  0  0  0  0  0  0  0
   11.5261   39.3885   31.4376 C   0  0  0  0  0  0  0  0  0  0  0  0
   12.7504   39.0888   32.0816 O   0  0  0  0  0  0  0  0  0  0  0  0
   10.6115   38.1910   31.6460 C   0  0  0  0  0  0  0  0  0  0  0  0
   12.9357   37.6812   32.0303 C   0  0  0  0  0  0  0  0  0  0  0  0
    9.6146   38.0859   30.6533 O   0  0  0  0  0  0  0  0  0  0  0  0
   11.5769   37.0148   31.7012 C   0  0  0  0  0  0  0  0  0  0  0  0
   13.4849   37.2112   33.3247 N   0  0  0  0  0  0  0  0  0  0  0  0
   11.6193   36.3261   30.4724 O   0  0  0  0  0  0  0  0  0  0  0  0
   14.4802   36.3313   33.5730 C   0  0  0  0  0  0  0  0  0  0  0  0
   13.1141   37.6268   34.5698 C   0  0  0  0  0  0  0  0  0  0  0  0
   15.2075   35.6151   32.6741 N   0  0  0  0  0  0  0  0  0  0  0  0
   14.6761   36.2300   34.9184 C   0  0  0  0  0  0  0  0  0  0  0  0
   13.8220   37.0445   35.5789 N   0  0  0  0  0  0  0  0  0  0  0  0
   16.1643   34.7600   33.1547 C   0  0  0  0  0  0  0  0  0  0  0  0
   15.6529   35.3503   35.4131 C   0  0  0  0  0  0  0  0  0  0  0  0
   16.3798   34.6314   34.5042 N   0  0  0  0  0  0  0  0  0  0  0  0
   15.9004   35.1930   36.8090 N   0  0  0  0  0  0  0  0  0  0  0  0
    9.0121   45.4317   33.6714 H   0  0  0  0  0  0  0  0  0  0  0  0
   10.7260   46.9687   33.1212 H   0  0  0  0  0  0  0  0  0  0  0  0
   11.8906   45.7657   32.9469 H   0  0  0  0  0  0  0  0  0  0  0  0
   10.7229   44.8814   31.1556 H   0  0  0  0  0  0  0  0  0  0  0  0
    9.3414   43.8329   31.4762 H   0  0  0  0  0  0  0  0  0  0  0  0
    7.0083   44.7170   31.5814 H   0  0  0  0  0  0  0  0  0  0  0  0
   10.3468   47.1849   30.4115 H   0  0  0  0  0  0  0  0  0  0  0  0
    5.4622   46.3068   30.5011 H   0  0  0  0  0  0  0  0  0  0  0  0
    8.8159   48.7632   29.3500 H   0  0  0  0  0  0  0  0  0  0  0  0
    7.0420   50.3506   29.1608 H   0  0  0  0  0  0  0  0  0  0  0  0
    4.4405   49.8574   27.6049 H   0  0  0  0  0  0  0  0  0  0  0  0
    4.6232   50.7322   29.1730 H   0  0  0  0  0  0  0  0  0  0  0  0
    5.3606   51.4152   27.6761 H   0  0  0  0  0  0  0  0  0  0  0  0
    5.9336   47.5610   26.8607 H   0  0  0  0  0  0  0  0  0  0  0  0
    9.4201   50.5580   24.9233 H   0  0  0  0  0  0  0  0  0  0  0  0
    7.2822   47.1941   22.3243 H   0  0  0  0  0  0  0  0  0  0  0  0
    8.5893   46.2181   23.1486 H   0  0  0  0  0  0  0  0  0  0  0  0
   11.3778   41.5526   31.4726 H   0  0  0  0  0  0  0  0  0  0  0  0
    9.8233   40.7191   31.7647 H   0  0  0  0  0  0  0  0  0  0  0  0
   11.7283   39.5312   30.3515 H   0  0  0  0  0  0  0  0  0  0  0  0
   10.1127   38.2734   32.6376 H   0  0  0  0  0  0  0  0  0  0  0  0
   13.6692   37.4566   31.2242 H   0  0  0  0  0  0  0  0  0  0  0  0
   10.0533   38.1119   29.7635 H   0  0  0  0  0  0  0  0  0  0  0  0
   11.2606   36.3148   32.5101 H   0  0  0  0  0  0  0  0  0  0  0  0
   12.1496   35.5023   30.6323 H   0  0  0  0  0  0  0  0  0  0  0  0
   12.3301   38.3524   34.7455 H   0  0  0  0  0  0  0  0  0  0  0  0
   16.7563   34.1781   32.4619 H   0  0  0  0  0  0  0  0  0  0  0  0
   16.6350   34.5299   37.1416 H   0  0  0  0  0  0  0  0  0  0  0  0
   15.3535   35.7357   37.5139 H   0  0  0  0  0  0  0  0  0  0  0  0
  1  2  2  0
  1  3  1  0
  3  4  1  0
  4  5  1  0
  6  1  1  0
  7  6  1  0
  6  8  1  0
  8  9  1  0
  9 10  2  0
 11  9  1  0
 10 12  1  0
 13 11  2  0
 12 14  2  0
 14 13  1  0
 14 15  1  0
 15 16  1  0
 16 17  1  0
 16 18  1  0
 18 19  2  0
 20 18  1  0
 19 21  1  0
 22 20  2  0
 20 23  1  0
 21 24  1  0
 21 25  2  0
 25 22  1  0
 23 26  1  0
 23 27  2  0
 24 28  1  0
 25 29  1  0
 28 29  1  0
  4 30  2  0
  4 31  1  0
 32 31  1  0
 32 33  1  0
 33 34  1  0
 33 35  1  0
 34 36  1  0
 35 37  1  0
 35 38  1  0
 38 36  1  0
 36 39  1  0
 38 40  1  0
 41 39  1  0
 42 39  1  0
 43 41  2  0
 41 44  1  0
 45 42  2  0
 46 43  1  0
 44 47  2  0
 44 45  1  0
 48 46  2  0
 48 47  1  0
 47 49  1  0
  6 50  1  1
  7 51  1  0
  7 52  1  0
  8 53  1  0
  8 54  1  0
 10 55  1  0
 11 56  1  0
 12 57  1  0
 13 58  1  0
 16 59  1  1
 17 60  1  0
 17 61  1  0
 17 62  1  0
 19 63  1  0
 22 64  1  0
 28 65  1  0
 28 66  1  0
 32 67  1  0
 32 68  1  0
 33 69  1  0
 35 70  1  0
 36 71  1  0
 37 72  1  0
 38 73  1  0
 40 74  1  0
 42 75  1  0
 46 76  1  0
 49 77  1  0
 49 78  1  0
M  CHG  3   5  -1  23   1  26  -1
M  END
>  <EmbedRMS>  (406) 
0.0816285547673

$$$$

     RDKit          3D

 78 83  0  0  0  0  0  0  0  0999 V2000
   10.2835   43.7662   33.8256 C   0  0  0  0  0  0  0  0  0  0  0  0
   11.4102   43.5930   34.3752 O   0  0  0  0  0  0  0  0  0  0  0  0
    9.3637   42.7255   33.7348 O   0  0  0  0  0  0  0  0  0  0  0  0
    9.8906   41.2265   34.2933 P   0  0  0  0  0  0  0  0  0  0  0  0
   10.3743   41.4557   35.8827 O   0  0  0  0  0  0  0  0  0  0  0  0
    9.9548   45.0695   33.2035 C   0  0  1  0  0  0  0  0  0  0  0  0
   11.0274   46.0322   33.4759 N   0  0  0  0  0  0  0  0  0  0  0  0
    9.7472   44.8483   31.6874 C   0  0  0  0  0  0  0  0  0  0  0  0
    8.7927   45.8407   31.0841 C   0  0  0  0  0  0  0  0  0  0  0  0
    7.4060   45.6012   31.0995 C   0  0  0  0  0  0  0  0  0  0  0  0
    9.2817   46.9878   30.4423 C   0  0  0  0  0  0  0  0  0  0  0  0
    6.5241   46.5014   30.4858 C   0  0  0  0  0  0  0  0  0  0  0  0
    8.4004   47.8883   29.8332 C   0  0  0  0  0  0  0  0  0  0  0  0
    7.0184   47.6564   29.8441 C   0  0  0  0  0  0  0  0  0  0  0  0
    6.1866   48.5988   29.2162 O   0  0  0  0  0  0  0  0  0  0  0  0
    4.7697   48.4888   29.0401 C   0  0  2  0  0  0  0  0  0  0  0  0
    4.4592   47.4750   27.9333 C   0  0  0  0  0  0  0  0  0  0  0  0
    4.1727   49.8410   28.6766 C   0  0  0  0  0  0  0  0  0  0  0  0
    5.0073   50.8457   28.1200 C   0  0  0  0  0  0  0  0  0  0  0  0
    2.7624   50.0939   28.7882 C   0  0  0  0  0  0  0  0  0  0  0  0
    4.4299   52.0409   27.7119 C   0  0  0  0  0  0  0  0  0  0  0  0
    2.2318   51.3242   28.3407 C   0  0  0  0  0  0  0  0  0  0  0  0
    1.8569   49.1173   29.3235 N   0  0  0  0  0  0  0  0  0  0  0  0
    5.0451   53.1436   27.1509 O   0  0  0  0  0  0  0  0  0  0  0  0
    3.1015   52.2696   27.8165 C   0  0  0  0  0  0  0  0  0  0  0  0
    0.6355   48.9236   28.7208 O   0  0  0  0  0  0  0  0  0  0  0  0
    2.0471   48.6414   30.4610 O   0  0  0  0  0  0  0  0  0  0  0  0
    4.0358   54.1284   26.8898 C   0  0  0  0  0  0  0  0  0  0  0  0
    2.8093   53.5291   27.3294 O   0  0  0  0  0  0  0  0  0  0  0  0
    8.8122   40.1851   34.2127 O   0  0  0  0  0  0  0  0  0  0  0  0
   11.2406   40.7945   33.3671 O   0  0  0  0  0  0  0  0  0  0  0  0
   10.9135   40.6866   31.9954 C   0  0  0  0  0  0  0  0  0  0  0  0
   11.5167   39.3787   31.4404 C   0  0  0  0  0  0  0  0  0  0  0  0
   12.7486   39.0849   32.0734 O   0  0  0  0  0  0  0  0  0  0  0  0
   10.6039   38.1884   31.6669 C   0  0  0  0  0  0  0  0  0  0  0  0
   12.9329   37.6776   32.0284 C   0  0  0  0  0  0  0  0  0  0  0  0
    9.6374   38.0938   30.6484 O   0  0  0  0  0  0  0  0  0  0  0  0
   11.5737   37.0141   31.7055 C   0  0  0  0  0  0  0  0  0  0  0  0
   13.4853   37.2120   33.3238 N   0  0  0  0  0  0  0  0  0  0  0  0
   11.6210   36.3379   30.4683 O   0  0  0  0  0  0  0  0  0  0  0  0
   14.4804   36.3319   33.5726 C   0  0  0  0  0  0  0  0  0  0  0  0
   13.1141   37.6275   34.5689 C   0  0  0  0  0  0  0  0  0  0  0  0
   15.2075   35.6152   32.6740 N   0  0  0  0  0  0  0  0  0  0  0  0
   14.6761   36.2306   34.9181 C   0  0  0  0  0  0  0  0  0  0  0  0
   13.8218   37.0451   35.5783 N   0  0  0  0  0  0  0  0  0  0  0  0
   16.1642   34.7600   33.1548 C   0  0  0  0  0  0  0  0  0  0  0  0
   15.6527   35.3506   35.4131 C   0  0  0  0  0  0  0  0  0  0  0  0
   16.3795   34.6315   34.5043 N   0  0  0  0  0  0  0  0  0  0  0  0
   15.9000   35.1933   36.8090 N   0  0  0  0  0  0  0  0  0  0  0  0
    9.0120   45.4317   33.6711 H   0  0  0  0  0  0  0  0  0  0  0  0
   10.7261   46.9688   33.1215 H   0  0  0  0  0  0  0  0  0  0  0  0
   11.8908   45.7659   32.9476 H   0  0  0  0  0  0  0  0  0  0  0  0
    9.3427   43.8330   31.4757 H   0  0  0  0  0  0  0  0  0  0  0  0
   10.7237   44.8823   31.1557 H   0  0  0  0  0  0  0  0  0  0  0  0
    7.0105   44.7165   31.5833 H   0  0  0  0  0  0  0  0  0  0  0  0
   10.3459   47.1865   30.4110 H   0  0  0  0  0  0  0  0  0  0  0  0
    5.4665   46.2849   30.5221 H   0  0  0  0  0  0  0  0  0  0  0  0
    8.7941   48.7706   29.3446 H   0  0  0  0  0  0  0  0  0  0  0  0
    4.3317   48.1537   29.9986 H   0  0  0  0  0  0  0  0  0  0  0  0
    4.8882   46.4823   28.1786 H   0  0  0  0  0  0  0  0  0  0  0  0
    3.3623   47.3541   27.8115 H   0  0  0  0  0  0  0  0  0  0  0  0
    4.8937   47.8159   26.9692 H   0  0  0  0  0  0  0  0  0  0  0  0
    6.0710   50.7014   27.9848 H   0  0  0  0  0  0  0  0  0  0  0  0
    1.1731   51.5388   28.4108 H   0  0  0  0  0  0  0  0  0  0  0  0
    3.9864   54.3491   25.8029 H   0  0  0  0  0  0  0  0  0  0  0  0
    4.2408   55.0519   27.4709 H   0  0  0  0  0  0  0  0  0  0  0  0
   11.3828   41.5438   31.4669 H   0  0  0  0  0  0  0  0  0  0  0  0
    9.8226   40.7225   31.7631 H   0  0  0  0  0  0  0  0  0  0  0  0
   11.6979   39.5037   30.3478 H   0  0  0  0  0  0  0  0  0  0  0  0
   10.1084   38.2787   32.6627 H   0  0  0  0  0  0  0  0  0  0  0  0
   13.6638   37.4472   31.2214 H   0  0  0  0  0  0  0  0  0  0  0  0
    8.9763   37.4191   30.9532 H   0  0  0  0  0  0  0  0  0  0  0  0
   11.2821   36.3054   32.5172 H   0  0  0  0  0  0  0  0  0  0  0  0
   10.8658   35.6935   30.4652 H   0  0  0  0  0  0  0  0  0  0  0  0
   12.3293   38.3523   34.7444 H   0  0  0  0  0  0  0  0  0  0  0  0
   16.7561   34.1778   32.4621 H   0  0  0  0  0  0  0  0  0  0  0  0
   15.3533   35.7361   37.5138 H   0  0  0  0  0  0  0  0  0  0  0  0
   16.6345   34.5300   37.1416 H   0  0  0  0  0  0  0  0  0  0  0  0
  1  2  2  0
  1  3  1  0
  3  4  1  0
  4  5  1  0
  6  1  1  0
  7  6  1  0
  6  8  1  0
  8  9  1  0
  9 10  2  0
 11  9  1  0
 10 12  1  0
 13 11  2  0
 12 14  2  0
 14 13  1  0
 14 15  1  0
 15 16  1  0
 16 17  1  0
 16 18  1  0
 18 19  2  0
 20 18  1  0
 19 21  1  0
 22 20  2  0
 20 23  1  0
 21 24  1  0
 21 25  2  0
 25 22  1  0
 23 26  1  0
 23 27  2  0
 24 28  1  0
 25 29  1  0
 28 29  1  0
  4 30  2  0
  4 31  1  0
 32 31  1  0
 32 33  1  0
 33 34  1  0
 33 35  1  0
 34 36  1  0
 35 37  1  0
 35 38  1  0
 38 36  1  0
 36 39  1  0
 38 40  1  0
 41 39  1  0
 42 39  1  0
 43 41  2  0
 41 44  1  0
 45 42  2  0
 46 43  1  0
 44 47  2  0
 44 45  1  0
 48 46  2  0
 48 47  1  0
 47 49  1  0
  6 50  1  1
  7 51  1  0
  7 52  1  0
  8 53  1  0
  8 54  1  0
 10 55  1  0
 11 56  1  0
 12 57  1  0
 13 58  1  0
 16 59  1  1
 17 60  1  0
 17 61  1  0
 17 62  1  0
 19 63  1  0
 22 64  1  0
 28 65  1  0
 28 66  1  0
 32 67  1  0
 32 68  1  0
 33 69  1  0
 35 70  1  0
 36 71  1  0
 37 72  1  0
 38 73  1  0
 40 74  1  0
 42 75  1  0
 46 76  1  0
 49 77  1  0
 49 78  1  0
M  CHG  3   5  -1  23   1  26  -1
M  END
>  <EmbedRMS>  (407) 
0.0825442950846

$$$$

     RDKit          3D

 78 83  0  0  0  0  0  0  0  0999 V2000
   10.2838   43.7626   33.8276 C   0  0  0  0  0  0  0  0  0  0  0  0
   11.4103   43.5865   34.3767 O   0  0  0  0  0  0  0  0  0  0  0  0
    9.3632   42.7234   33.7353 O   0  0  0  0  0  0  0  0  0  0  0  0
    9.8898   41.2247   34.2940 P   0  0  0  0  0  0  0  0  0  0  0  0
   10.3725   41.4544   35.8837 O   0  0  0  0  0  0  0  0  0  0  0  0
    9.9547   45.0699   33.2061 C   0  0  1  0  0  0  0  0  0  0  0  0
   11.0196   46.0481   33.4566 N   0  0  0  0  0  0  0  0  0  0  0  0
    9.7504   44.8504   31.6921 C   0  0  0  0  0  0  0  0  0  0  0  0
    8.7944   45.8407   31.0857 C   0  0  0  0  0  0  0  0  0  0  0  0
    7.4078   45.6011   31.1003 C   0  0  0  0  0  0  0  0  0  0  0  0
    9.2829   46.9890   30.4459 C   0  0  0  0  0  0  0  0  0  0  0  0
    6.5286   46.5033   30.4862 C   0  0  0  0  0  0  0  0  0  0  0  0
    8.4034   47.8903   29.8346 C   0  0  0  0  0  0  0  0  0  0  0  0
    7.0141   47.6511   29.8439 C   0  0  0  0  0  0  0  0  0  0  0  0
    6.0768   48.5207   29.2520 O   0  0  0  0  0  0  0  0  0  0  0  0
    6.3336   49.5822   28.3172 C   0  0  2  0  0  0  0  0  0  0  0  0
    7.1478   49.0576   27.1166 C   0  0  0  0  0  0  0  0  0  0  0  0
    6.9383   50.8293   28.9686 C   0  0  0  0  0  0  0  0  0  0  0  0
    7.1751   50.8595   30.3694 C   0  0  0  0  0  0  0  0  0  0  0  0
    7.2638   51.9959   28.1936 C   0  0  0  0  0  0  0  0  0  0  0  0
    7.7955   51.9727   30.9200 C   0  0  0  0  0  0  0  0  0  0  0  0
    7.9103   53.0928   28.8075 C   0  0  0  0  0  0  0  0  0  0  0  0
    6.9104   52.1020   26.8070 N   0  0  0  0  0  0  0  0  0  0  0  0
    8.1398   52.1982   32.2390 O   0  0  0  0  0  0  0  0  0  0  0  0
    8.1571   53.0373   30.1708 C   0  0  0  0  0  0  0  0  0  0  0  0
    5.6166   51.8593   26.4078 O   0  0  0  0  0  0  0  0  0  0  0  0
    7.6987   52.6401   26.0023 O   0  0  0  0  0  0  0  0  0  0  0  0
    8.7608   53.4882   32.3197 C   0  0  0  0  0  0  0  0  0  0  0  0
    8.7503   53.9902   30.9764 O   0  0  0  0  0  0  0  0  0  0  0  0
    8.8118   40.1831   34.2121 O   0  0  0  0  0  0  0  0  0  0  0  0
   11.2413   40.7934   33.3696 O   0  0  0  0  0  0  0  0  0  0  0  0
   10.9178   40.6902   31.9971 C   0  0  0  0  0  0  0  0  0  0  0  0
   11.5181   39.3813   31.4408 C   0  0  0  0  0  0  0  0  0  0  0  0
   12.7497   39.0870   32.0745 O   0  0  0  0  0  0  0  0  0  0  0  0
   10.6045   38.1891   31.6655 C   0  0  0  0  0  0  0  0  0  0  0  0
   12.9344   37.6801   32.0290 C   0  0  0  0  0  0  0  0  0  0  0  0
    9.6418   38.0758   30.6441 O   0  0  0  0  0  0  0  0  0  0  0  0
   11.5741   37.0169   31.7045 C   0  0  0  0  0  0  0  0  0  0  0  0
   13.4851   37.2125   33.3241 N   0  0  0  0  0  0  0  0  0  0  0  0
   11.6079   36.3407   30.4680 O   0  0  0  0  0  0  0  0  0  0  0  0
   14.4801   36.3321   33.5727 C   0  0  0  0  0  0  0  0  0  0  0  0
   13.1140   37.6277   34.5692 C   0  0  0  0  0  0  0  0  0  0  0  0
   15.2073   35.6155   32.6739 N   0  0  0  0  0  0  0  0  0  0  0  0
   14.6758   36.2306   34.9182 C   0  0  0  0  0  0  0  0  0  0  0  0
   13.8217   37.0451   35.5784 N   0  0  0  0  0  0  0  0  0  0  0  0
   16.1639   34.7602   33.1546 C   0  0  0  0  0  0  0  0  0  0  0  0
   15.6526   35.3506   35.4130 C   0  0  0  0  0  0  0  0  0  0  0  0
   16.3794   34.6316   34.5041 N   0  0  0  0  0  0  0  0  0  0  0  0
   15.9001   35.1933   36.8089 N   0  0  0  0  0  0  0  0  0  0  0  0
    9.0096   45.4348   33.6665 H   0  0  0  0  0  0  0  0  0  0  0  0
   11.9347   45.6934   33.0924 H   0  0  0  0  0  0  0  0  0  0  0  0
   11.1130   46.1995   34.4879 H   0  0  0  0  0  0  0  0  0  0  0  0
   10.7307   44.8919   31.1674 H   0  0  0  0  0  0  0  0  0  0  0  0
    9.3514   43.8337   31.4761 H   0  0  0  0  0  0  0  0  0  0  0  0
    7.0109   44.7167   31.5834 H   0  0  0  0  0  0  0  0  0  0  0  0
   10.3465   47.1928   30.4256 H   0  0  0  0  0  0  0  0  0  0  0  0
    5.4642   46.3069   30.5065 H   0  0  0  0  0  0  0  0  0  0  0  0
    8.8172   48.7801   29.3872 H   0  0  0  0  0  0  0  0  0  0  0  0
    5.3374   49.8788   27.9286 H   0  0  0  0  0  0  0  0  0  0  0  0
    6.8539   49.5766   26.1823 H   0  0  0  0  0  0  0  0  0  0  0  0
    8.2373   49.2050   27.2597 H   0  0  0  0  0  0  0  0  0  0  0  0
    6.9493   47.9761   26.9597 H   0  0  0  0  0  0  0  0  0  0  0  0
    6.8942   50.0478   31.0242 H   0  0  0  0  0  0  0  0  0  0  0  0
    8.1767   53.9776   28.2436 H   0  0  0  0  0  0  0  0  0  0  0  0
    9.8050   53.3898   32.6838 H   0  0  0  0  0  0  0  0  0  0  0  0
    8.1730   54.1566   32.9832 H   0  0  0  0  0  0  0  0  0  0  0  0
   11.3949   41.5458   31.4728 H   0  0  0  0  0  0  0  0  0  0  0  0
    9.8290   40.7386   31.7615 H   0  0  0  0  0  0  0  0  0  0  0  0
   11.6994   39.5070   30.3483 H   0  0  0  0  0  0  0  0  0  0  0  0
   10.1090   38.2634   32.6632 H   0  0  0  0  0  0  0  0  0  0  0  0
   13.6662   37.4514   31.2224 H   0  0  0  0  0  0  0  0  0  0  0  0
    8.9009   38.6924   30.8793 H   0  0  0  0  0  0  0  0  0  0  0  0
   11.2650   36.3082   32.5086 H   0  0  0  0  0  0  0  0  0  0  0  0
   12.1372   35.5140   30.6163 H   0  0  0  0  0  0  0  0  0  0  0  0
   12.3297   38.3530   34.7449 H   0  0  0  0  0  0  0  0  0  0  0  0
   16.7558   34.1781   32.4619 H   0  0  0  0  0  0  0  0  0  0  0  0
   15.3533   35.7360   37.5138 H   0  0  0  0  0  0  0  0  0  0  0  0
   16.6346   34.5300   37.1414 H   0  0  0  0  0  0  0  0  0  0  0  0
  1  2  2  0
  1  3  1  0
  3  4  1  0
  4  5  1  0
  6  1  1  0
  7  6  1  0
  6  8  1  0
  8  9  1  0
  9 10  2  0
 11  9  1  0
 10 12  1  0
 13 11  2  0
 12 14  2  0
 14 13  1  0
 14 15  1  0
 15 16  1  0
 16 17  1  0
 16 18  1  0
 18 19  2  0
 20 18  1  0
 19 21  1  0
 22 20  2  0
 20 23  1  0
 21 24  1  0
 21 25  2  0
 25 22  1  0
 23 26  1  0
 23 27  2  0
 24 28  1  0
 25 29  1  0
 28 29  1  0
  4 30  2  0
  4 31  1  0
 32 31  1  0
 32 33  1  0
 33 34  1  0
 33 35  1  0
 34 36  1  0
 35 37  1  0
 35 38  1  0
 38 36  1  0
 36 39  1  0
 38 40  1  0
 41 39  1  0
 42 39  1  0
 43 41  2  0
 41 44  1  0
 45 42  2  0
 46 43  1  0
 44 47  2  0
 44 45  1  0
 48 46  2  0
 48 47  1  0
 47 49  1  0
  6 50  1  1
  7 51  1  0
  7 52  1  0
  8 53  1  0
  8 54  1  0
 10 55  1  0
 11 56  1  0
 12 57  1  0
 13 58  1  0
 16 59  1  6
 17 60  1  0
 17 61  1  0
 17 62  1  0
 19 63  1  0
 22 64  1  0
 28 65  1  0
 28 66  1  0
 32 67  1  0
 32 68  1  0
 33 69  1  0
 35 70  1  0
 36 71  1  0
 37 72  1  0
 38 73  1  0
 40 74  1  0
 42 75  1  0
 46 76  1  0
 49 77  1  0
 49 78  1  0
M  CHG  3   5  -1  23   1  26  -1
M  END
>  <EmbedRMS>  (408) 
0.0837441428934

$$$$

     RDKit          3D

 78 83  0  0  0  0  0  0  0  0999 V2000
   10.2839   43.7626   33.8275 C   0  0  0  0  0  0  0  0  0  0  0  0
   11.4103   43.5863   34.3767 O   0  0  0  0  0  0  0  0  0  0  0  0
    9.3633   42.7234   33.7352 O   0  0  0  0  0  0  0  0  0  0  0  0
    9.8898   41.2247   34.2940 P   0  0  0  0  0  0  0  0  0  0  0  0
   10.3724   41.4544   35.8836 O   0  0  0  0  0  0  0  0  0  0  0  0
    9.9549   45.0699   33.2063 C   0  0  1  0  0  0  0  0  0  0  0  0
   11.0198   46.0481   33.4571 N   0  0  0  0  0  0  0  0  0  0  0  0
    9.7507   44.8510   31.6922 C   0  0  0  0  0  0  0  0  0  0  0  0
    8.7946   45.8416   31.0866 C   0  0  0  0  0  0  0  0  0  0  0  0
    7.4079   45.6007   31.1005 C   0  0  0  0  0  0  0  0  0  0  0  0
    9.2827   46.9892   30.4449 C   0  0  0  0  0  0  0  0  0  0  0  0
    6.5254   46.5001   30.4860 C   0  0  0  0  0  0  0  0  0  0  0  0
    8.4008   47.8883   29.8341 C   0  0  0  0  0  0  0  0  0  0  0  0
    7.0190   47.6551   29.8440 C   0  0  0  0  0  0  0  0  0  0  0  0
    6.1867   48.5962   29.2151 O   0  0  0  0  0  0  0  0  0  0  0  0
    4.7735   48.4758   29.0239 C   0  0  2  0  0  0  0  0  0  0  0  0
    4.4755   47.4601   27.9151 C   0  0  0  0  0  0  0  0  0  0  0  0
    4.2076   49.8306   28.6428 C   0  0  0  0  0  0  0  0  0  0  0  0
    4.8963   50.6040   27.6753 C   0  0  0  0  0  0  0  0  0  0  0  0
    3.0269   50.3670   29.2569 C   0  0  0  0  0  0  0  0  0  0  0  0
    4.4222   51.8755   27.3811 C   0  0  0  0  0  0  0  0  0  0  0  0
    2.6017   51.6752   28.9287 C   0  0  0  0  0  0  0  0  0  0  0  0
    2.2420   49.5975   30.1815 N   0  0  0  0  0  0  0  0  0  0  0  0
    4.9347   52.7983   26.4897 O   0  0  0  0  0  0  0  0  0  0  0  0
    3.3269   52.3905   27.9851 C   0  0  0  0  0  0  0  0  0  0  0  0
    1.8722   48.3101   29.8676 O   0  0  0  0  0  0  0  0  0  0  0  0
    1.7018   50.1577   31.1576 O   0  0  0  0  0  0  0  0  0  0  0  0
    4.1056   53.9675   26.5380 C   0  0  0  0  0  0  0  0  0  0  0  0
    3.0910   53.6644   27.5052 O   0  0  0  0  0  0  0  0  0  0  0  0
    8.8118   40.1831   34.2121 O   0  0  0  0  0  0  0  0  0  0  0  0
   11.2413   40.7934   33.3696 O   0  0  0  0  0  0  0  0  0  0  0  0
   10.9178   40.6902   31.9971 C   0  0  0  0  0  0  0  0  0  0  0  0
   11.5181   39.3813   31.4408 C   0  0  0  0  0  0  0  0  0  0  0  0
   12.7497   39.0870   32.0745 O   0  0  0  0  0  0  0  0  0  0  0  0
   10.6045   38.1891   31.6655 C   0  0  0  0  0  0  0  0  0  0  0  0
   12.9344   37.6801   32.0290 C   0  0  0  0  0  0  0  0  0  0  0  0
    9.6418   38.0758   30.6440 O   0  0  0  0  0  0  0  0  0  0  0  0
   11.5741   37.0169   31.7045 C   0  0  0  0  0  0  0  0  0  0  0  0
   13.4851   37.2125   33.3241 N   0  0  0  0  0  0  0  0  0  0  0  0
   11.6079   36.3406   30.4680 O   0  0  0  0  0  0  0  0  0  0  0  0
   14.4801   36.3321   33.5727 C   0  0  0  0  0  0  0  0  0  0  0  0
   13.1140   37.6277   34.5693 C   0  0  0  0  0  0  0  0  0  0  0  0
   15.2073   35.6155   32.6739 N   0  0  0  0  0  0  0  0  0  0  0  0
   14.6758   36.2306   34.9182 C   0  0  0  0  0  0  0  0  0  0  0  0
   13.8217   37.0450   35.5785 N   0  0  0  0  0  0  0  0  0  0  0  0
   16.1639   34.7602   33.1546 C   0  0  0  0  0  0  0  0  0  0  0  0
   15.6526   35.3506   35.4130 C   0  0  0  0  0  0  0  0  0  0  0  0
   16.3794   34.6316   34.5041 N   0  0  0  0  0  0  0  0  0  0  0  0
   15.9001   35.1933   36.8089 N   0  0  0  0  0  0  0  0  0  0  0  0
    9.0098   45.4347   33.6668 H   0  0  0  0  0  0  0  0  0  0  0  0
   11.1131   46.1992   34.4884 H   0  0  0  0  0  0  0  0  0  0  0  0
   11.9349   45.6934   33.0929 H   0  0  0  0  0  0  0  0  0  0  0  0
   10.7311   44.8930   31.1676 H   0  0  0  0  0  0  0  0  0  0  0  0
    9.3521   43.8343   31.4757 H   0  0  0  0  0  0  0  0  0  0  0  0
    7.0130   44.7158   31.5845 H   0  0  0  0  0  0  0  0  0  0  0  0
   10.3466   47.1898   30.4157 H   0  0  0  0  0  0  0  0  0  0  0  0
    5.4680   46.2833   30.5234 H   0  0  0  0  0  0  0  0  0  0  0  0
    8.7941   48.7709   29.3456 H   0  0  0  0  0  0  0  0  0  0  0  0
    4.3173   48.1347   29.9739 H   0  0  0  0  0  0  0  0  0  0  0  0
    3.3818   47.4000   27.7317 H   0  0  0  0  0  0  0  0  0  0  0  0
    4.8335   46.4508   28.2030 H   0  0  0  0  0  0  0  0  0  0  0  0
    4.9826   47.7544   26.9715 H   0  0  0  0  0  0  0  0  0  0  0  0
    5.7849   50.2320   27.1809 H   0  0  0  0  0  0  0  0  0  0  0  0
    1.7170   52.1094   29.3765 H   0  0  0  0  0  0  0  0  0  0  0  0
    4.6991   54.8459   26.8677 H   0  0  0  0  0  0  0  0  0  0  0  0
    3.6451   54.1531   25.5450 H   0  0  0  0  0  0  0  0  0  0  0  0
   11.3949   41.5458   31.4729 H   0  0  0  0  0  0  0  0  0  0  0  0
    9.8290   40.7386   31.7614 H   0  0  0  0  0  0  0  0  0  0  0  0
   11.6994   39.5070   30.3483 H   0  0  0  0  0  0  0  0  0  0  0  0
   10.1090   38.2634   32.6632 H   0  0  0  0  0  0  0  0  0  0  0  0
   13.6662   37.4514   31.2224 H   0  0  0  0  0  0  0  0  0  0  0  0
    8.9009   38.6924   30.8793 H   0  0  0  0  0  0  0  0  0  0  0  0
   11.2650   36.3083   32.5087 H   0  0  0  0  0  0  0  0  0  0  0  0
   12.1372   35.5140   30.6163 H   0  0  0  0  0  0  0  0  0  0  0  0
   12.3297   38.3530   34.7450 H   0  0  0  0  0  0  0  0  0  0  0  0
   16.7558   34.1781   32.4619 H   0  0  0  0  0  0  0  0  0  0  0  0
   15.3533   35.7360   37.5138 H   0  0  0  0  0  0  0  0  0  0  0  0
   16.6346   34.5300   37.1414 H   0  0  0  0  0  0  0  0  0  0  0  0
  1  2  2  0
  1  3  1  0
  3  4  1  0
  4  5  1  0
  6  1  1  0
  7  6  1  0
  6  8  1  0
  8  9  1  0
  9 10  2  0
 11  9  1  0
 10 12  1  0
 13 11  2  0
 12 14  2  0
 14 13  1  0
 14 15  1  0
 15 16  1  0
 16 17  1  0
 16 18  1  0
 18 19  2  0
 20 18  1  0
 19 21  1  0
 22 20  2  0
 20 23  1  0
 21 24  1  0
 21 25  2  0
 25 22  1  0
 23 26  1  0
 23 27  2  0
 24 28  1  0
 25 29  1  0
 28 29  1  0
  4 30  2  0
  4 31  1  0
 32 31  1  0
 32 33  1  0
 33 34  1  0
 33 35  1  0
 34 36  1  0
 35 37  1  0
 35 38  1  0
 38 36  1  0
 36 39  1  0
 38 40  1  0
 41 39  1  0
 42 39  1  0
 43 41  2  0
 41 44  1  0
 45 42  2  0
 46 43  1  0
 44 47  2  0
 44 45  1  0
 48 46  2  0
 48 47  1  0
 47 49  1  0
  6 50  1  1
  7 51  1  0
  7 52  1  0
  8 53  1  0
  8 54  1  0
 10 55  1  0
 11 56  1  0
 12 57  1  0
 13 58  1  0
 16 59  1  1
 17 60  1  0
 17 61  1  0
 17 62  1  0
 19 63  1  0
 22 64  1  0
 28 65  1  0
 28 66  1  0
 32 67  1  0
 32 68  1  0
 33 69  1  0
 35 70  1  0
 36 71  1  0
 37 72  1  0
 38 73  1  0
 40 74  1  0
 42 75  1  0
 46 76  1  0
 49 77  1  0
 49 78  1  0
M  CHG  3   5  -1  23   1  26  -1
M  END
>  <EmbedRMS>  (409) 
0.0837050868613

$$$$

     RDKit          3D

 78 83  0  0  0  0  0  0  0  0999 V2000
   10.2839   43.7626   33.8277 C   0  0  0  0  0  0  0  0  0  0  0  0
   11.4104   43.5863   34.3767 O   0  0  0  0  0  0  0  0  0  0  0  0
    9.3631   42.7236   33.7354 O   0  0  0  0  0  0  0  0  0  0  0  0
    9.8898   41.2247   34.2935 P   0  0  0  0  0  0  0  0  0  0  0  0
   10.3734   41.4542   35.8829 O   0  0  0  0  0  0  0  0  0  0  0  0
    9.9548   45.0699   33.2066 C   0  0  1  0  0  0  0  0  0  0  0  0
   11.0199   46.0480   33.4569 N   0  0  0  0  0  0  0  0  0  0  0  0
    9.7500   44.8508   31.6926 C   0  0  0  0  0  0  0  0  0  0  0  0
    8.7941   45.8419   31.0874 C   0  0  0  0  0  0  0  0  0  0  0  0
    7.4077   45.6009   31.0998 C   0  0  0  0  0  0  0  0  0  0  0  0
    9.2830   46.9887   30.4447 C   0  0  0  0  0  0  0  0  0  0  0  0
    6.5285   46.5014   30.4834 C   0  0  0  0  0  0  0  0  0  0  0  0
    8.4039   47.8896   29.8315 C   0  0  0  0  0  0  0  0  0  0  0  0
    7.0137   47.6533   29.8485 C   0  0  0  0  0  0  0  0  0  0  0  0
    6.0822   48.5164   29.2474 O   0  0  0  0  0  0  0  0  0  0  0  0
    6.3685   49.7895   28.6622 C   0  0  2  0  0  0  0  0  0  0  0  0
    6.6466   50.8303   29.7554 C   0  0  0  0  0  0  0  0  0  0  0  0
    5.1803   50.2153   27.8180 C   0  0  0  0  0  0  0  0  0  0  0  0
    3.9132   50.3300   28.4431 C   0  0  0  0  0  0  0  0  0  0  0  0
    5.3033   50.5437   26.4261 C   0  0  0  0  0  0  0  0  0  0  0  0
    2.8420   50.7993   27.6942 C   0  0  0  0  0  0  0  0  0  0  0  0
    4.1821   51.0337   25.7201 C   0  0  0  0  0  0  0  0  0  0  0  0
    6.5350   50.3680   25.7128 N   0  0  0  0  0  0  0  0  0  0  0  0
    1.5353   50.9996   28.0959 O   0  0  0  0  0  0  0  0  0  0  0  0
    2.9722   51.1422   26.3922 C   0  0  0  0  0  0  0  0  0  0  0  0
    6.9386   51.3240   24.8097 O   0  0  0  0  0  0  0  0  0  0  0  0
    7.0846   49.2475   25.6893 O   0  0  0  0  0  0  0  0  0  0  0  0
    0.7990   51.5008   26.9719 C   0  0  0  0  0  0  0  0  0  0  0  0
    1.7544   51.5763   25.9050 O   0  0  0  0  0  0  0  0  0  0  0  0
    8.8115   40.1834   34.2126 O   0  0  0  0  0  0  0  0  0  0  0  0
   11.2402   40.7936   33.3673 O   0  0  0  0  0  0  0  0  0  0  0  0
   10.9134   40.6864   31.9955 C   0  0  0  0  0  0  0  0  0  0  0  0
   11.5166   39.3786   31.4404 C   0  0  0  0  0  0  0  0  0  0  0  0
   12.7486   39.0849   32.0734 O   0  0  0  0  0  0  0  0  0  0  0  0
   10.6039   38.1883   31.6669 C   0  0  0  0  0  0  0  0  0  0  0  0
   12.9329   37.6775   32.0284 C   0  0  0  0  0  0  0  0  0  0  0  0
    9.6374   38.0938   30.6484 O   0  0  0  0  0  0  0  0  0  0  0  0
   11.5737   37.0140   31.7055 C   0  0  0  0  0  0  0  0  0  0  0  0
   13.4853   37.2120   33.3238 N   0  0  0  0  0  0  0  0  0  0  0  0
   11.6210   36.3379   30.4683 O   0  0  0  0  0  0  0  0  0  0  0  0
   14.4804   36.3319   33.5726 C   0  0  0  0  0  0  0  0  0  0  0  0
   13.1141   37.6275   34.5689 C   0  0  0  0  0  0  0  0  0  0  0  0
   15.2076   35.6152   32.6740 N   0  0  0  0  0  0  0  0  0  0  0  0
   14.6761   36.2306   34.9181 C   0  0  0  0  0  0  0  0  0  0  0  0
   13.8218   37.0451   35.5783 N   0  0  0  0  0  0  0  0  0  0  0  0
   16.1642   34.7600   33.1548 C   0  0  0  0  0  0  0  0  0  0  0  0
   15.6527   35.3507   35.4131 C   0  0  0  0  0  0  0  0  0  0  0  0
   16.3795   34.6315   34.5043 N   0  0  0  0  0  0  0  0  0  0  0  0
   15.9000   35.1933   36.8090 N   0  0  0  0  0  0  0  0  0  0  0  0
    9.0099   45.4349   33.6674 H   0  0  0  0  0  0  0  0  0  0  0  0
   11.9348   45.6932   33.0924 H   0  0  0  0  0  0  0  0  0  0  0  0
   11.1136   46.1992   34.4882 H   0  0  0  0  0  0  0  0  0  0  0  0
   10.7303   44.8922   31.1677 H   0  0  0  0  0  0  0  0  0  0  0  0
    9.3507   43.8343   31.4765 H   0  0  0  0  0  0  0  0  0  0  0  0
    7.0110   44.7155   31.5812 H   0  0  0  0  0  0  0  0  0  0  0  0
   10.3476   47.1863   30.4145 H   0  0  0  0  0  0  0  0  0  0  0  0
    5.4643   46.3032   30.5002 H   0  0  0  0  0  0  0  0  0  0  0  0
    8.8228   48.7573   29.3441 H   0  0  0  0  0  0  0  0  0  0  0  0
    7.2772   49.7147   28.0378 H   0  0  0  0  0  0  0  0  0  0  0  0
    7.5705   50.5725   30.3121 H   0  0  0  0  0  0  0  0  0  0  0  0
    6.7874   51.8338   29.2997 H   0  0  0  0  0  0  0  0  0  0  0  0
    5.8092   50.8766   30.4826 H   0  0  0  0  0  0  0  0  0  0  0  0
    3.7698   50.0737   29.4850 H   0  0  0  0  0  0  0  0  0  0  0  0
    4.2476   51.2949   24.6716 H   0  0  0  0  0  0  0  0  0  0  0  0
   -0.0189   50.7993   26.7049 H   0  0  0  0  0  0  0  0  0  0  0  0
    0.3950   52.5102   27.1966 H   0  0  0  0  0  0  0  0  0  0  0  0
   11.3831   41.5437   31.4675 H   0  0  0  0  0  0  0  0  0  0  0  0
    9.8226   40.7225   31.7629 H   0  0  0  0  0  0  0  0  0  0  0  0
   11.6978   39.5037   30.3478 H   0  0  0  0  0  0  0  0  0  0  0  0
   10.1084   38.2785   32.6626 H   0  0  0  0  0  0  0  0  0  0  0  0
   13.6638   37.4472   31.2214 H   0  0  0  0  0  0  0  0  0  0  0  0
    8.9763   37.4190   30.9532 H   0  0  0  0  0  0  0  0  0  0  0  0
   11.2821   36.3053   32.5171 H   0  0  0  0  0  0  0  0  0  0  0  0
   10.8658   35.6935   30.4652 H   0  0  0  0  0  0  0  0  0  0  0  0
   12.3294   38.3523   34.7444 H   0  0  0  0  0  0  0  0  0  0  0  0
   16.7561   34.1778   32.4621 H   0  0  0  0  0  0  0  0  0  0  0  0
   16.6345   34.5300   37.1416 H   0  0  0  0  0  0  0  0  0  0  0  0
   15.3533   35.7361   37.5138 H   0  0  0  0  0  0  0  0  0  0  0  0
  1  2  2  0
  1  3  1  0
  3  4  1  0
  4  5  1  0
  6  1  1  0
  7  6  1  0
  6  8  1  0
  8  9  1  0
  9 10  2  0
 11  9  1  0
 10 12  1  0
 13 11  2  0
 12 14  2  0
 14 13  1  0
 14 15  1  0
 15 16  1  0
 16 17  1  0
 16 18  1  0
 18 19  2  0
 20 18  1  0
 19 21  1  0
 22 20  2  0
 20 23  1  0
 21 24  1  0
 21 25  2  0
 25 22  1  0
 23 26  1  0
 23 27  2  0
 24 28  1  0
 25 29  1  0
 28 29  1  0
  4 30  2  0
  4 31  1  0
 32 31  1  0
 32 33  1  0
 33 34  1  0
 33 35  1  0
 34 36  1  0
 35 37  1  0
 35 38  1  0
 38 36  1  0
 36 39  1  0
 38 40  1  0
 41 39  1  0
 42 39  1  0
 43 41  2  0
 41 44  1  0
 45 42  2  0
 46 43  1  0
 44 47  2  0
 44 45  1  0
 48 46  2  0
 48 47  1  0
 47 49  1  0
  6 50  1  1
  7 51  1  0
  7 52  1  0
  8 53  1  0
  8 54  1  0
 10 55  1  0
 11 56  1  0
 12 57  1  0
 13 58  1  0
 16 59  1  6
 17 60  1  0
 17 61  1  0
 17 62  1  0
 19 63  1  0
 22 64  1  0
 28 65  1  0
 28 66  1  0
 32 67  1  0
 32 68  1  0
 33 69  1  0
 35 70  1  0
 36 71  1  0
 37 72  1  0
 38 73  1  0
 40 74  1  0
 42 75  1  0
 46 76  1  0
 49 77  1  0
 49 78  1  0
M  CHG  3   5  -1  23   1  26  -1
M  END
>  <EmbedRMS>  (410) 
0.0834322492951

$$$$

     RDKit          3D

 78 83  0  0  0  0  0  0  0  0999 V2000
   10.2839   43.7626   33.8275 C   0  0  0  0  0  0  0  0  0  0  0  0
   11.4104   43.5864   34.3767 O   0  0  0  0  0  0  0  0  0  0  0  0
    9.3634   42.7234   33.7351 O   0  0  0  0  0  0  0  0  0  0  0  0
    9.8899   41.2247   34.2940 P   0  0  0  0  0  0  0  0  0  0  0  0
   10.3723   41.4545   35.8837 O   0  0  0  0  0  0  0  0  0  0  0  0
    9.9548   45.0700   33.2064 C   0  0  1  0  0  0  0  0  0  0  0  0
   11.0197   46.0482   33.4572 N   0  0  0  0  0  0  0  0  0  0  0  0
    9.7506   44.8512   31.6923 C   0  0  0  0  0  0  0  0  0  0  0  0
    8.7944   45.8420   31.0871 C   0  0  0  0  0  0  0  0  0  0  0  0
    7.4077   45.6002   31.1001 C   0  0  0  0  0  0  0  0  0  0  0  0
    9.2827   46.9890   30.4440 C   0  0  0  0  0  0  0  0  0  0  0  0
    6.5259   46.4991   30.4845 C   0  0  0  0  0  0  0  0  0  0  0  0
    8.4009   47.8878   29.8324 C   0  0  0  0  0  0  0  0  0  0  0  0
    7.0192   47.6565   29.8478 C   0  0  0  0  0  0  0  0  0  0  0  0
    6.1811   48.5956   29.2245 O   0  0  0  0  0  0  0  0  0  0  0  0
    4.7512   48.5596   29.2313 C   0  0  2  0  0  0  0  0  0  0  0  0
    4.2284   49.6220   28.2662 C   0  0  0  0  0  0  0  0  0  0  0  0
    4.2169   48.8203   30.6299 C   0  0  0  0  0  0  0  0  0  0  0  0
    4.8105   49.8513   31.3990 C   0  0  0  0  0  0  0  0  0  0  0  0
    3.1748   48.0233   31.2110 C   0  0  0  0  0  0  0  0  0  0  0  0
    4.3877   50.0288   32.7095 C   0  0  0  0  0  0  0  0  0  0  0  0
    2.7983   48.2397   32.5557 C   0  0  0  0  0  0  0  0  0  0  0  0
    2.4859   47.0121   30.4592 N   0  0  0  0  0  0  0  0  0  0  0  0
    4.8310   50.9512   33.6376 O   0  0  0  0  0  0  0  0  0  0  0  0
    3.4283   49.2536   33.2652 C   0  0  0  0  0  0  0  0  0  0  0  0
    2.0745   45.8577   31.0843 O   0  0  0  0  0  0  0  0  0  0  0  0
    2.0521   47.2650   29.3166 O   0  0  0  0  0  0  0  0  0  0  0  0
    4.1008   50.7407   34.8539 C   0  0  0  0  0  0  0  0  0  0  0  0
    3.2158   49.6479   34.5721 O   0  0  0  0  0  0  0  0  0  0  0  0
    8.8119   40.1831   34.2120 O   0  0  0  0  0  0  0  0  0  0  0  0
   11.2416   40.7932   33.3699 O   0  0  0  0  0  0  0  0  0  0  0  0
   10.9186   40.6909   31.9972 C   0  0  0  0  0  0  0  0  0  0  0  0
   11.5172   39.3814   31.4407 C   0  0  0  0  0  0  0  0  0  0  0  0
   12.7493   39.0855   32.0727 O   0  0  0  0  0  0  0  0  0  0  0  0
   10.6023   38.1907   31.6665 C   0  0  0  0  0  0  0  0  0  0  0  0
   12.9319   37.6781   32.0281 C   0  0  0  0  0  0  0  0  0  0  0  0
    9.6392   38.0797   30.6452 O   0  0  0  0  0  0  0  0  0  0  0  0
   11.5715   37.0165   31.7056 C   0  0  0  0  0  0  0  0  0  0  0  0
   13.4847   37.2121   33.3235 N   0  0  0  0  0  0  0  0  0  0  0  0
   11.6187   36.3383   30.4694 O   0  0  0  0  0  0  0  0  0  0  0  0
   14.4801   36.3321   33.5724 C   0  0  0  0  0  0  0  0  0  0  0  0
   13.1137   37.6275   34.5687 C   0  0  0  0  0  0  0  0  0  0  0  0
   15.2073   35.6153   32.6738 N   0  0  0  0  0  0  0  0  0  0  0  0
   14.6759   36.2308   34.9179 C   0  0  0  0  0  0  0  0  0  0  0  0
   13.8216   37.0452   35.5781 N   0  0  0  0  0  0  0  0  0  0  0  0
   16.1640   34.7602   33.1546 C   0  0  0  0  0  0  0  0  0  0  0  0
   15.6526   35.3508   35.4129 C   0  0  0  0  0  0  0  0  0  0  0  0
   16.3794   34.6317   34.5041 N   0  0  0  0  0  0  0  0  0  0  0  0
   15.8999   35.1934   36.8088 N   0  0  0  0  0  0  0  0  0  0  0  0
    9.0098   45.4348   33.6670 H   0  0  0  0  0  0  0  0  0  0  0  0
   11.9349   45.6934   33.0931 H   0  0  0  0  0  0  0  0  0  0  0  0
   11.1130   46.1993   34.4885 H   0  0  0  0  0  0  0  0  0  0  0  0
    9.3519   43.8346   31.4758 H   0  0  0  0  0  0  0  0  0  0  0  0
   10.7310   44.8933   31.1677 H   0  0  0  0  0  0  0  0  0  0  0  0
    7.0127   44.7140   31.5815 H   0  0  0  0  0  0  0  0  0  0  0  0
   10.3467   47.1891   30.4141 H   0  0  0  0  0  0  0  0  0  0  0  0
    5.4683   46.2798   30.5092 H   0  0  0  0  0  0  0  0  0  0  0  0
    8.7936   48.7707   29.3441 H   0  0  0  0  0  0  0  0  0  0  0  0
    4.4306   47.5703   28.8450 H   0  0  0  0  0  0  0  0  0  0  0  0
    3.1178   49.6170   28.2502 H   0  0  0  0  0  0  0  0  0  0  0  0
    4.5816   50.6317   28.5664 H   0  0  0  0  0  0  0  0  0  0  0  0
    4.5964   49.4094   27.2400 H   0  0  0  0  0  0  0  0  0  0  0  0
    5.5943   50.4794   30.9948 H   0  0  0  0  0  0  0  0  0  0  0  0
    2.0203   47.6515   33.0250 H   0  0  0  0  0  0  0  0  0  0  0  0
    3.5176   51.6489   35.1138 H   0  0  0  0  0  0  0  0  0  0  0  0
    4.7951   50.4691   35.6765 H   0  0  0  0  0  0  0  0  0  0  0  0
    9.8300   40.7410   31.7611 H   0  0  0  0  0  0  0  0  0  0  0  0
   11.3971   41.5459   31.4735 H   0  0  0  0  0  0  0  0  0  0  0  0
   11.6974   39.5067   30.3480 H   0  0  0  0  0  0  0  0  0  0  0  0
   10.1077   38.2647   32.6645 H   0  0  0  0  0  0  0  0  0  0  0  0
   13.6621   37.4467   31.2209 H   0  0  0  0  0  0  0  0  0  0  0  0
    8.8975   38.6943   30.8831 H   0  0  0  0  0  0  0  0  0  0  0  0
   11.2806   36.3073   32.5170 H   0  0  0  0  0  0  0  0  0  0  0  0
   10.8493   35.7110   30.4585 H   0  0  0  0  0  0  0  0  0  0  0  0
   12.3290   38.3524   34.7444 H   0  0  0  0  0  0  0  0  0  0  0  0
   16.7559   34.1780   32.4619 H   0  0  0  0  0  0  0  0  0  0  0  0
   16.6344   34.5301   37.1414 H   0  0  0  0  0  0  0  0  0  0  0  0
   15.3532   35.7362   37.5137 H   0  0  0  0  0  0  0  0  0  0  0  0
  1  2  2  0
  1  3  1  0
  3  4  1  0
  4  5  1  0
  6  1  1  0
  7  6  1  0
  6  8  1  0
  8  9  1  0
  9 10  2  0
 11  9  1  0
 10 12  1  0
 13 11  2  0
 12 14  2  0
 14 13  1  0
 14 15  1  0
 15 16  1  0
 16 17  1  0
 16 18  1  0
 18 19  2  0
 20 18  1  0
 19 21  1  0
 22 20  2  0
 20 23  1  0
 21 24  1  0
 21 25  2  0
 25 22  1  0
 23 26  1  0
 23 27  2  0
 24 28  1  0
 25 29  1  0
 28 29  1  0
  4 30  2  0
  4 31  1  0
 32 31  1  0
 32 33  1  0
 33 34  1  0
 33 35  1  0
 34 36  1  0
 35 37  1  0
 35 38  1  0
 38 36  1  0
 36 39  1  0
 38 40  1  0
 41 39  1  0
 42 39  1  0
 43 41  2  0
 41 44  1  0
 45 42  2  0
 46 43  1  0
 44 47  2  0
 44 45  1  0
 48 46  2  0
 48 47  1  0
 47 49  1  0
  6 50  1  1
  7 51  1  0
  7 52  1  0
  8 53  1  0
  8 54  1  0
 10 55  1  0
 11 56  1  0
 12 57  1  0
 13 58  1  0
 16 59  1  6
 17 60  1  0
 17 61  1  0
 17 62  1  0
 19 63  1  0
 22 64  1  0
 28 65  1  0
 28 66  1  0
 32 67  1  0
 32 68  1  0
 33 69  1  0
 35 70  1  0
 36 71  1  0
 37 72  1  0
 38 73  1  0
 40 74  1  0
 42 75  1  0
 46 76  1  0
 49 77  1  0
 49 78  1  0
M  CHG  3   5  -1  23   1  26  -1
M  END
>  <EmbedRMS>  (411) 
0.0838163629762

$$$$

     RDKit          3D

 78 83  0  0  0  0  0  0  0  0999 V2000
   10.2837   43.7627   33.8276 C   0  0  0  0  0  0  0  0  0  0  0  0
   11.4102   43.5864   34.3767 O   0  0  0  0  0  0  0  0  0  0  0  0
    9.3629   42.7236   33.7354 O   0  0  0  0  0  0  0  0  0  0  0  0
    9.8897   41.2248   34.2935 P   0  0  0  0  0  0  0  0  0  0  0  0
   10.3735   41.4542   35.8829 O   0  0  0  0  0  0  0  0  0  0  0  0
    9.9547   45.0699   33.2061 C   0  0  1  0  0  0  0  0  0  0  0  0
   11.0196   46.0481   33.4566 N   0  0  0  0  0  0  0  0  0  0  0  0
    9.7504   44.8504   31.6921 C   0  0  0  0  0  0  0  0  0  0  0  0
    8.7944   45.8406   31.0857 C   0  0  0  0  0  0  0  0  0  0  0  0
    7.4079   45.6011   31.1002 C   0  0  0  0  0  0  0  0  0  0  0  0
    9.2829   46.9890   30.4459 C   0  0  0  0  0  0  0  0  0  0  0  0
    6.5286   46.5033   30.4862 C   0  0  0  0  0  0  0  0  0  0  0  0
    8.4034   47.8903   29.8347 C   0  0  0  0  0  0  0  0  0  0  0  0
    7.0140   47.6511   29.8440 C   0  0  0  0  0  0  0  0  0  0  0  0
    6.0766   48.5208   29.2523 O   0  0  0  0  0  0  0  0  0  0  0  0
    6.3324   49.5812   28.3159 C   0  0  2  0  0  0  0  0  0  0  0  0
    7.1517   49.0581   27.1180 C   0  0  0  0  0  0  0  0  0  0  0  0
    6.9311   50.8321   28.9656 C   0  0  0  0  0  0  0  0  0  0  0  0
    7.1791   50.8614   30.3645 C   0  0  0  0  0  0  0  0  0  0  0  0
    7.2412   52.0036   28.1904 C   0  0  0  0  0  0  0  0  0  0  0  0
    7.7970   51.9777   30.9117 C   0  0  0  0  0  0  0  0  0  0  0  0
    7.8869   53.1022   28.8003 C   0  0  0  0  0  0  0  0  0  0  0  0
    6.8789   52.1142   26.8065 N   0  0  0  0  0  0  0  0  0  0  0  0
    8.1510   52.2031   32.2282 O   0  0  0  0  0  0  0  0  0  0  0  0
    8.1457   53.0458   30.1614 C   0  0  0  0  0  0  0  0  0  0  0  0
    7.7278   52.7459   25.9273 O   0  0  0  0  0  0  0  0  0  0  0  0
    5.7087   51.8734   26.4458 O   0  0  0  0  0  0  0  0  0  0  0  0
    8.7649   53.4968   32.3058 C   0  0  0  0  0  0  0  0  0  0  0  0
    8.7400   54.0009   30.9636 O   0  0  0  0  0  0  0  0  0  0  0  0
    8.8114   40.1834   34.2127 O   0  0  0  0  0  0  0  0  0  0  0  0
   11.2399   40.7938   33.3670 O   0  0  0  0  0  0  0  0  0  0  0  0
   10.9125   40.6857   31.9955 C   0  0  0  0  0  0  0  0  0  0  0  0
   11.5175   39.3786   31.4405 C   0  0  0  0  0  0  0  0  0  0  0  0
   12.7490   39.0863   32.0751 O   0  0  0  0  0  0  0  0  0  0  0  0
   10.6060   38.1867   31.6656 C   0  0  0  0  0  0  0  0  0  0  0  0
   12.9356   37.6796   32.0292 C   0  0  0  0  0  0  0  0  0  0  0  0
    9.6399   38.0902   30.6471 O   0  0  0  0  0  0  0  0  0  0  0  0
   11.5765   37.0145   31.7043 C   0  0  0  0  0  0  0  0  0  0  0  0
   13.4858   37.2125   33.3244 N   0  0  0  0  0  0  0  0  0  0  0  0
   11.6101   36.3397   30.4672 O   0  0  0  0  0  0  0  0  0  0  0  0
   14.4805   36.3319   33.5729 C   0  0  0  0  0  0  0  0  0  0  0  0
   13.1143   37.6277   34.5694 C   0  0  0  0  0  0  0  0  0  0  0  0
   15.2076   35.6153   32.6741 N   0  0  0  0  0  0  0  0  0  0  0  0
   14.6760   36.2304   34.9184 C   0  0  0  0  0  0  0  0  0  0  0  0
   13.8219   37.0449   35.5786 N   0  0  0  0  0  0  0  0  0  0  0  0
   16.1641   34.7600   33.1548 C   0  0  0  0  0  0  0  0  0  0  0  0
   15.6528   35.3505   35.4132 C   0  0  0  0  0  0  0  0  0  0  0  0
   16.3795   34.6314   34.5043 N   0  0  0  0  0  0  0  0  0  0  0  0
   15.9002   35.1932   36.8091 N   0  0  0  0  0  0  0  0  0  0  0  0
    9.0096   45.4350   33.6665 H   0  0  0  0  0  0  0  0  0  0  0  0
   11.1130   46.1995   34.4879 H   0  0  0  0  0  0  0  0  0  0  0  0
   11.9347   45.6933   33.0924 H   0  0  0  0  0  0  0  0  0  0  0  0
    9.3515   43.8337   31.4761 H   0  0  0  0  0  0  0  0  0  0  0  0
   10.7308   44.8920   31.1674 H   0  0  0  0  0  0  0  0  0  0  0  0
    7.0109   44.7167   31.5833 H   0  0  0  0  0  0  0  0  0  0  0  0
   10.3465   47.1928   30.4257 H   0  0  0  0  0  0  0  0  0  0  0  0
    5.4642   46.3069   30.5065 H   0  0  0  0  0  0  0  0  0  0  0  0
    8.8171   48.7804   29.3878 H   0  0  0  0  0  0  0  0  0  0  0  0
    5.3358   49.8732   27.9241 H   0  0  0  0  0  0  0  0  0  0  0  0
    6.8575   49.5734   26.1818 H   0  0  0  0  0  0  0  0  0  0  0  0
    6.9592   47.9753   26.9631 H   0  0  0  0  0  0  0  0  0  0  0  0
    8.2402   49.2118   27.2627 H   0  0  0  0  0  0  0  0  0  0  0  0
    6.9094   50.0469   31.0202 H   0  0  0  0  0  0  0  0  0  0  0  0
    8.1430   53.9897   28.2359 H   0  0  0  0  0  0  0  0  0  0  0  0
    9.8127   53.4040   32.6609 H   0  0  0  0  0  0  0  0  0  0  0  0
    8.1788   54.1605   32.9754 H   0  0  0  0  0  0  0  0  0  0  0  0
    9.8215   40.7200   31.7634 H   0  0  0  0  0  0  0  0  0  0  0  0
   11.3806   41.5436   31.4669 H   0  0  0  0  0  0  0  0  0  0  0  0
   11.6998   39.5042   30.3481 H   0  0  0  0  0  0  0  0  0  0  0  0
   10.1085   38.2765   32.6603 H   0  0  0  0  0  0  0  0  0  0  0  0
   13.6680   37.4519   31.2229 H   0  0  0  0  0  0  0  0  0  0  0  0
    9.0016   37.3867   30.9349 H   0  0  0  0  0  0  0  0  0  0  0  0
   11.2666   36.3061   32.5083 H   0  0  0  0  0  0  0  0  0  0  0  0
   12.1389   35.5126   30.6149 H   0  0  0  0  0  0  0  0  0  0  0  0
   12.3300   38.3529   34.7449 H   0  0  0  0  0  0  0  0  0  0  0  0
   16.7560   34.1779   32.4621 H   0  0  0  0  0  0  0  0  0  0  0  0
   16.6347   34.5299   37.1416 H   0  0  0  0  0  0  0  0  0  0  0  0
   15.3534   35.7359   37.5140 H   0  0  0  0  0  0  0  0  0  0  0  0
  1  2  2  0
  1  3  1  0
  3  4  1  0
  4  5  1  0
  6  1  1  0
  7  6  1  0
  6  8  1  0
  8  9  1  0
  9 10  2  0
 11  9  1  0
 10 12  1  0
 13 11  2  0
 12 14  2  0
 14 13  1  0
 14 15  1  0
 15 16  1  0
 16 17  1  0
 16 18  1  0
 18 19  2  0
 20 18  1  0
 19 21  1  0
 22 20  2  0
 20 23  1  0
 21 24  1  0
 21 25  2  0
 25 22  1  0
 23 26  1  0
 23 27  2  0
 24 28  1  0
 25 29  1  0
 28 29  1  0
  4 30  2  0
  4 31  1  0
 32 31  1  0
 32 33  1  0
 33 34  1  0
 33 35  1  0
 34 36  1  0
 35 37  1  0
 35 38  1  0
 38 36  1  0
 36 39  1  0
 38 40  1  0
 41 39  1  0
 42 39  1  0
 43 41  2  0
 41 44  1  0
 45 42  2  0
 46 43  1  0
 44 47  2  0
 44 45  1  0
 48 46  2  0
 48 47  1  0
 47 49  1  0
  6 50  1  1
  7 51  1  0
  7 52  1  0
  8 53  1  0
  8 54  1  0
 10 55  1  0
 11 56  1  0
 12 57  1  0
 13 58  1  0
 16 59  1  6
 17 60  1  0
 17 61  1  0
 17 62  1  0
 19 63  1  0
 22 64  1  0
 28 65  1  0
 28 66  1  0
 32 67  1  0
 32 68  1  0
 33 69  1  0
 35 70  1  0
 36 71  1  0
 37 72  1  0
 38 73  1  0
 40 74  1  0
 42 75  1  0
 46 76  1  0
 49 77  1  0
 49 78  1  0
M  CHG  3   5  -1  23   1  26  -1
M  END
>  <EmbedRMS>  (412) 
0.0833114576569

$$$$

     RDKit          3D

 78 83  0  0  0  0  0  0  0  0999 V2000
   10.2804   43.7664   33.8250 C   0  0  0  0  0  0  0  0  0  0  0  0
   11.4111   43.5918   34.3667 O   0  0  0  0  0  0  0  0  0  0  0  0
    9.3618   42.7250   33.7345 O   0  0  0  0  0  0  0  0  0  0  0  0
    9.8898   41.2267   34.2939 P   0  0  0  0  0  0  0  0  0  0  0  0
   10.3735   41.4566   35.8832 O   0  0  0  0  0  0  0  0  0  0  0  0
    9.9461   45.0736   33.2112 C   0  0  1  0  0  0  0  0  0  0  0  0
   11.0268   46.0292   33.4710 N   0  0  0  0  0  0  0  0  0  0  0  0
    9.7544   44.8541   31.6949 C   0  0  0  0  0  0  0  0  0  0  0  0
    8.7963   45.8411   31.0847 C   0  0  0  0  0  0  0  0  0  0  0  0
    7.4102   45.6008   31.1011 C   0  0  0  0  0  0  0  0  0  0  0  0
    9.2823   46.9876   30.4402 C   0  0  0  0  0  0  0  0  0  0  0  0
    6.5269   46.4995   30.4865 C   0  0  0  0  0  0  0  0  0  0  0  0
    8.3987   47.8861   29.8322 C   0  0  0  0  0  0  0  0  0  0  0  0
    7.0161   47.6550   29.8445 C   0  0  0  0  0  0  0  0  0  0  0  0
    6.1943   48.5989   29.2011 O   0  0  0  0  0  0  0  0  0  0  0  0
    4.7696   48.5836   29.0458 C   0  0  2  0  0  0  0  0  0  0  0  0
    4.0786   48.8819   30.3856 C   0  0  0  0  0  0  0  0  0  0  0  0
    4.2800   47.3476   28.2904 C   0  0  0  0  0  0  0  0  0  0  0  0
    3.4190   46.4015   28.9116 C   0  0  0  0  0  0  0  0  0  0  0  0
    4.6106   47.1693   26.9040 C   0  0  0  0  0  0  0  0  0  0  0  0
    2.9601   45.3243   28.1654 C   0  0  0  0  0  0  0  0  0  0  0  0
    4.1006   46.0600   26.1929 C   0  0  0  0  0  0  0  0  0  0  0  0
    5.4092   48.1263   26.1923 N   0  0  0  0  0  0  0  0  0  0  0  0
    2.1364   44.2906   28.5681 O   0  0  0  0  0  0  0  0  0  0  0  0
    3.2871   45.1600   26.8645 C   0  0  0  0  0  0  0  0  0  0  0  0
    6.6904   48.4023   26.6064 O   0  0  0  0  0  0  0  0  0  0  0  0
    5.0458   48.5159   25.0635 O   0  0  0  0  0  0  0  0  0  0  0  0
    1.9367   43.4209   27.4454 C   0  0  0  0  0  0  0  0  0  0  0  0
    2.6883   44.0140   26.3778 O   0  0  0  0  0  0  0  0  0  0  0  0
    8.8122   40.1844   34.2133 O   0  0  0  0  0  0  0  0  0  0  0  0
   11.2402   40.7944   33.3688 O   0  0  0  0  0  0  0  0  0  0  0  0
   10.9142   40.6898   31.9970 C   0  0  0  0  0  0  0  0  0  0  0  0
   11.5260   39.3884   31.4376 C   0  0  0  0  0  0  0  0  0  0  0  0
   12.7504   39.0888   32.0816 O   0  0  0  0  0  0  0  0  0  0  0  0
   10.6114   38.1909   31.6460 C   0  0  0  0  0  0  0  0  0  0  0  0
   12.9357   37.6812   32.0303 C   0  0  0  0  0  0  0  0  0  0  0  0
    9.6145   38.0858   30.6533 O   0  0  0  0  0  0  0  0  0  0  0  0
   11.5769   37.0148   31.7012 C   0  0  0  0  0  0  0  0  0  0  0  0
   13.4849   37.2112   33.3247 N   0  0  0  0  0  0  0  0  0  0  0  0
   11.6193   36.3261   30.4724 O   0  0  0  0  0  0  0  0  0  0  0  0
   14.4802   36.3314   33.5730 C   0  0  0  0  0  0  0  0  0  0  0  0
   13.1141   37.6268   34.5698 C   0  0  0  0  0  0  0  0  0  0  0  0
   15.2074   35.6151   32.6741 N   0  0  0  0  0  0  0  0  0  0  0  0
   14.6760   36.2301   34.9184 C   0  0  0  0  0  0  0  0  0  0  0  0
   13.8220   37.0445   35.5789 N   0  0  0  0  0  0  0  0  0  0  0  0
   16.1642   34.7600   33.1547 C   0  0  0  0  0  0  0  0  0  0  0  0
   15.6529   35.3503   35.4132 C   0  0  0  0  0  0  0  0  0  0  0  0
   16.3797   34.6314   34.5042 N   0  0  0  0  0  0  0  0  0  0  0  0
   15.9003   35.1930   36.8091 N   0  0  0  0  0  0  0  0  0  0  0  0
    8.9996   45.4381   33.6720 H   0  0  0  0  0  0  0  0  0  0  0  0
   10.7766   46.9369   33.0160 H   0  0  0  0  0  0  0  0  0  0  0  0
   11.0502   46.2277   34.4984 H   0  0  0  0  0  0  0  0  0  0  0  0
   10.7416   44.9078   31.1837 H   0  0  0  0  0  0  0  0  0  0  0  0
    9.3649   43.8354   31.4710 H   0  0  0  0  0  0  0  0  0  0  0  0
    7.0160   44.7164   31.5867 H   0  0  0  0  0  0  0  0  0  0  0  0
   10.3460   47.1878   30.4054 H   0  0  0  0  0  0  0  0  0  0  0  0
    5.4772   46.2762   30.5279 H   0  0  0  0  0  0  0  0  0  0  0  0
    8.7920   48.7667   29.3401 H   0  0  0  0  0  0  0  0  0  0  0  0
    4.5139   49.4527   28.4014 H   0  0  0  0  0  0  0  0  0  0  0  0
    4.3067   48.1170   31.1531 H   0  0  0  0  0  0  0  0  0  0  0  0
    2.9784   48.9442   30.2445 H   0  0  0  0  0  0  0  0  0  0  0  0
    4.4306   49.8623   30.7710 H   0  0  0  0  0  0  0  0  0  0  0  0
    3.1100   46.4852   29.9435 H   0  0  0  0  0  0  0  0  0  0  0  0
    4.3349   45.9068   25.1472 H   0  0  0  0  0  0  0  0  0  0  0  0
    0.8598   43.3791   27.1788 H   0  0  0  0  0  0  0  0  0  0  0  0
    2.3269   42.4064   27.6712 H   0  0  0  0  0  0  0  0  0  0  0  0
   11.3777   41.5526   31.4723 H   0  0  0  0  0  0  0  0  0  0  0  0
    9.8231   40.7190   31.7644 H   0  0  0  0  0  0  0  0  0  0  0  0
   11.7284   39.5311   30.3515 H   0  0  0  0  0  0  0  0  0  0  0  0
   10.1127   38.2734   32.6376 H   0  0  0  0  0  0  0  0  0  0  0  0
   13.6693   37.4566   31.2242 H   0  0  0  0  0  0  0  0  0  0  0  0
   10.0533   38.1118   29.7635 H   0  0  0  0  0  0  0  0  0  0  0  0
   11.2607   36.3148   32.5101 H   0  0  0  0  0  0  0  0  0  0  0  0
   12.1496   35.5023   30.6323 H   0  0  0  0  0  0  0  0  0  0  0  0
   12.3301   38.3524   34.7455 H   0  0  0  0  0  0  0  0  0  0  0  0
   16.7562   34.1780   32.4619 H   0  0  0  0  0  0  0  0  0  0  0  0
   16.6350   34.5298   37.1416 H   0  0  0  0  0  0  0  0  0  0  0  0
   15.3535   35.7357   37.5139 H   0  0  0  0  0  0  0  0  0  0  0  0
  1  2  2  0
  1  3  1  0
  3  4  1  0
  4  5  1  0
  6  1  1  0
  7  6  1  0
  6  8  1  0
  8  9  1  0
  9 10  2  0
 11  9  1  0
 10 12  1  0
 13 11  2  0
 12 14  2  0
 14 13  1  0
 14 15  1  0
 15 16  1  0
 16 17  1  0
 16 18  1  0
 18 19  2  0
 20 18  1  0
 19 21  1  0
 22 20  2  0
 20 23  1  0
 21 24  1  0
 21 25  2  0
 25 22  1  0
 23 26  1  0
 23 27  2  0
 24 28  1  0
 25 29  1  0
 28 29  1  0
  4 30  2  0
  4 31  1  0
 32 31  1  0
 32 33  1  0
 33 34  1  0
 33 35  1  0
 34 36  1  0
 35 37  1  0
 35 38  1  0
 38 36  1  0
 36 39  1  0
 38 40  1  0
 41 39  1  0
 42 39  1  0
 43 41  2  0
 41 44  1  0
 45 42  2  0
 46 43  1  0
 44 47  2  0
 44 45  1  0
 48 46  2  0
 48 47  1  0
 47 49  1  0
  6 50  1  1
  7 51  1  0
  7 52  1  0
  8 53  1  0
  8 54  1  0
 10 55  1  0
 11 56  1  0
 12 57  1  0
 13 58  1  0
 16 59  1  6
 17 60  1  0
 17 61  1  0
 17 62  1  0
 19 63  1  0
 22 64  1  0
 28 65  1  0
 28 66  1  0
 32 67  1  0
 32 68  1  0
 33 69  1  0
 35 70  1  0
 36 71  1  0
 37 72  1  0
 38 73  1  0
 40 74  1  0
 42 75  1  0
 46 76  1  0
 49 77  1  0
 49 78  1  0
M  CHG  3   5  -1  23   1  26  -1
M  END
>  <EmbedRMS>  (413) 
0.0814336946028

$$$$

     RDKit          3D

 78 83  0  0  0  0  0  0  0  0999 V2000
   10.2835   43.7662   33.8256 C   0  0  0  0  0  0  0  0  0  0  0  0
   11.4102   43.5930   34.3752 O   0  0  0  0  0  0  0  0  0  0  0  0
    9.3637   42.7255   33.7348 O   0  0  0  0  0  0  0  0  0  0  0  0
    9.8906   41.2266   34.2933 P   0  0  0  0  0  0  0  0  0  0  0  0
   10.3743   41.4557   35.8827 O   0  0  0  0  0  0  0  0  0  0  0  0
    9.9548   45.0695   33.2034 C   0  0  1  0  0  0  0  0  0  0  0  0
   11.0274   46.0322   33.4759 N   0  0  0  0  0  0  0  0  0  0  0  0
    9.7472   44.8483   31.6874 C   0  0  0  0  0  0  0  0  0  0  0  0
    8.7927   45.8407   31.0840 C   0  0  0  0  0  0  0  0  0  0  0  0
    7.4060   45.6012   31.0995 C   0  0  0  0  0  0  0  0  0  0  0  0
    9.2817   46.9879   30.4424 C   0  0  0  0  0  0  0  0  0  0  0  0
    6.5241   46.5014   30.4858 C   0  0  0  0  0  0  0  0  0  0  0  0
    8.4004   47.8884   29.8334 C   0  0  0  0  0  0  0  0  0  0  0  0
    7.0184   47.6562   29.8439 C   0  0  0  0  0  0  0  0  0  0  0  0
    6.1866   48.5982   29.2157 O   0  0  0  0  0  0  0  0  0  0  0  0
    4.7731   48.4793   29.0254 C   0  0  2  0  0  0  0  0  0  0  0  0
    4.4734   47.4642   27.9166 C   0  0  0  0  0  0  0  0  0  0  0  0
    4.2070   49.8344   28.6440 C   0  0  0  0  0  0  0  0  0  0  0  0
    4.9081   50.6172   27.6931 C   0  0  0  0  0  0  0  0  0  0  0  0
    3.0109   50.3609   29.2389 C   0  0  0  0  0  0  0  0  0  0  0  0
    4.4333   51.8885   27.3994 C   0  0  0  0  0  0  0  0  0  0  0  0
    2.5870   51.6693   28.9135 C   0  0  0  0  0  0  0  0  0  0  0  0
    2.2096   49.5864   30.1451 N   0  0  0  0  0  0  0  0  0  0  0  0
    4.9569   52.8198   26.5233 O   0  0  0  0  0  0  0  0  0  0  0  0
    3.3255   52.3944   27.9880 C   0  0  0  0  0  0  0  0  0  0  0  0
    1.5673   50.2084   31.1908 O   0  0  0  0  0  0  0  0  0  0  0  0
    1.8959   48.4124   29.8598 O   0  0  0  0  0  0  0  0  0  0  0  0
    4.1220   53.9851   26.5656 C   0  0  0  0  0  0  0  0  0  0  0  0
    3.0922   53.6707   27.5130 O   0  0  0  0  0  0  0  0  0  0  0  0
    8.8122   40.1851   34.2127 O   0  0  0  0  0  0  0  0  0  0  0  0
   11.2406   40.7945   33.3670 O   0  0  0  0  0  0  0  0  0  0  0  0
   10.9135   40.6866   31.9954 C   0  0  0  0  0  0  0  0  0  0  0  0
   11.5167   39.3787   31.4404 C   0  0  0  0  0  0  0  0  0  0  0  0
   12.7486   39.0849   32.0734 O   0  0  0  0  0  0  0  0  0  0  0  0
   10.6039   38.1884   31.6669 C   0  0  0  0  0  0  0  0  0  0  0  0
   12.9329   37.6776   32.0284 C   0  0  0  0  0  0  0  0  0  0  0  0
    9.6374   38.0938   30.6484 O   0  0  0  0  0  0  0  0  0  0  0  0
   11.5737   37.0141   31.7055 C   0  0  0  0  0  0  0  0  0  0  0  0
   13.4853   37.2120   33.3238 N   0  0  0  0  0  0  0  0  0  0  0  0
   11.6210   36.3379   30.4684 O   0  0  0  0  0  0  0  0  0  0  0  0
   14.4804   36.3319   33.5726 C   0  0  0  0  0  0  0  0  0  0  0  0
   13.1141   37.6275   34.5689 C   0  0  0  0  0  0  0  0  0  0  0  0
   15.2075   35.6152   32.6740 N   0  0  0  0  0  0  0  0  0  0  0  0
   14.6761   36.2306   34.9181 C   0  0  0  0  0  0  0  0  0  0  0  0
   13.8218   37.0451   35.5783 N   0  0  0  0  0  0  0  0  0  0  0  0
   16.1642   34.7600   33.1548 C   0  0  0  0  0  0  0  0  0  0  0  0
   15.6528   35.3507   35.4131 C   0  0  0  0  0  0  0  0  0  0  0  0
   16.3795   34.6315   34.5043 N   0  0  0  0  0  0  0  0  0  0  0  0
   15.9001   35.1933   36.8090 N   0  0  0  0  0  0  0  0  0  0  0  0
    9.0120   45.4317   33.6711 H   0  0  0  0  0  0  0  0  0  0  0  0
   11.8908   45.7659   32.9476 H   0  0  0  0  0  0  0  0  0  0  0  0
   10.7261   46.9688   33.1214 H   0  0  0  0  0  0  0  0  0  0  0  0
   10.7237   44.8823   31.1557 H   0  0  0  0  0  0  0  0  0  0  0  0
    9.3427   43.8330   31.4757 H   0  0  0  0  0  0  0  0  0  0  0  0
    7.0105   44.7167   31.5836 H   0  0  0  0  0  0  0  0  0  0  0  0
   10.3459   47.1867   30.4113 H   0  0  0  0  0  0  0  0  0  0  0  0
    5.4665   46.2856   30.5237 H   0  0  0  0  0  0  0  0  0  0  0  0
    8.7941   48.7707   29.3448 H   0  0  0  0  0  0  0  0  0  0  0  0
    4.3178   48.1391   29.9762 H   0  0  0  0  0  0  0  0  0  0  0  0
    4.8360   46.4557   28.2014 H   0  0  0  0  0  0  0  0  0  0  0  0
    3.3790   47.4009   27.7383 H   0  0  0  0  0  0  0  0  0  0  0  0
    4.9752   47.7619   26.9713 H   0  0  0  0  0  0  0  0  0  0  0  0
    5.8063   50.2525   27.2108 H   0  0  0  0  0  0  0  0  0  0  0  0
    1.6924   52.0965   29.3480 H   0  0  0  0  0  0  0  0  0  0  0  0
    4.7059   54.8636   26.9117 H   0  0  0  0  0  0  0  0  0  0  0  0
    3.6779   54.1757   25.5661 H   0  0  0  0  0  0  0  0  0  0  0  0
    9.8226   40.7225   31.7631 H   0  0  0  0  0  0  0  0  0  0  0  0
   11.3828   41.5438   31.4669 H   0  0  0  0  0  0  0  0  0  0  0  0
   11.6979   39.5037   30.3478 H   0  0  0  0  0  0  0  0  0  0  0  0
   10.1084   38.2787   32.6627 H   0  0  0  0  0  0  0  0  0  0  0  0
   13.6638   37.4472   31.2214 H   0  0  0  0  0  0  0  0  0  0  0  0
    8.9763   37.4191   30.9532 H   0  0  0  0  0  0  0  0  0  0  0  0
   11.2821   36.3054   32.5172 H   0  0  0  0  0  0  0  0  0  0  0  0
   10.8658   35.6935   30.4653 H   0  0  0  0  0  0  0  0  0  0  0  0
   12.3293   38.3523   34.7445 H   0  0  0  0  0  0  0  0  0  0  0  0
   16.7561   34.1778   32.4621 H   0  0  0  0  0  0  0  0  0  0  0  0
   16.6345   34.5300   37.1416 H   0  0  0  0  0  0  0  0  0  0  0  0
   15.3533   35.7361   37.5138 H   0  0  0  0  0  0  0  0  0  0  0  0
  1  2  2  0
  1  3  1  0
  3  4  1  0
  4  5  1  0
  6  1  1  0
  7  6  1  0
  6  8  1  0
  8  9  1  0
  9 10  2  0
 11  9  1  0
 10 12  1  0
 13 11  2  0
 12 14  2  0
 14 13  1  0
 14 15  1  0
 15 16  1  0
 16 17  1  0
 16 18  1  0
 18 19  2  0
 20 18  1  0
 19 21  1  0
 22 20  2  0
 20 23  1  0
 21 24  1  0
 21 25  2  0
 25 22  1  0
 23 26  1  0
 23 27  2  0
 24 28  1  0
 25 29  1  0
 28 29  1  0
  4 30  2  0
  4 31  1  0
 32 31  1  0
 32 33  1  0
 33 34  1  0
 33 35  1  0
 34 36  1  0
 35 37  1  0
 35 38  1  0
 38 36  1  0
 36 39  1  0
 38 40  1  0
 41 39  1  0
 42 39  1  0
 43 41  2  0
 41 44  1  0
 45 42  2  0
 46 43  1  0
 44 47  2  0
 44 45  1  0
 48 46  2  0
 48 47  1  0
 47 49  1  0
  6 50  1  1
  7 51  1  0
  7 52  1  0
  8 53  1  0
  8 54  1  0
 10 55  1  0
 11 56  1  0
 12 57  1  0
 13 58  1  0
 16 59  1  1
 17 60  1  0
 17 61  1  0
 17 62  1  0
 19 63  1  0
 22 64  1  0
 28 65  1  0
 28 66  1  0
 32 67  1  0
 32 68  1  0
 33 69  1  0
 35 70  1  0
 36 71  1  0
 37 72  1  0
 38 73  1  0
 40 74  1  0
 42 75  1  0
 46 76  1  0
 49 77  1  0
 49 78  1  0
M  CHG  3   5  -1  23   1  26  -1
M  END
>  <EmbedRMS>  (414) 
0.0825439603621

$$$$

     RDKit          3D

 78 83  0  0  0  0  0  0  0  0999 V2000
   10.2835   43.7661   33.8256 C   0  0  0  0  0  0  0  0  0  0  0  0
   11.4102   43.5930   34.3753 O   0  0  0  0  0  0  0  0  0  0  0  0
    9.3639   42.7253   33.7347 O   0  0  0  0  0  0  0  0  0  0  0  0
    9.8906   41.2265   34.2938 P   0  0  0  0  0  0  0  0  0  0  0  0
   10.3733   41.4559   35.8835 O   0  0  0  0  0  0  0  0  0  0  0  0
    9.9547   45.0695   33.2036 C   0  0  1  0  0  0  0  0  0  0  0  0
   11.0272   46.0323   33.4760 N   0  0  0  0  0  0  0  0  0  0  0  0
    9.7471   44.8484   31.6876 C   0  0  0  0  0  0  0  0  0  0  0  0
    8.7925   45.8409   31.0845 C   0  0  0  0  0  0  0  0  0  0  0  0
    7.4059   45.6007   31.0991 C   0  0  0  0  0  0  0  0  0  0  0  0
    9.2818   46.9876   30.4414 C   0  0  0  0  0  0  0  0  0  0  0  0
    6.5246   46.5004   30.4843 C   0  0  0  0  0  0  0  0  0  0  0  0
    8.4005   47.8879   29.8316 C   0  0  0  0  0  0  0  0  0  0  0  0
    7.0187   47.6576   29.8477 C   0  0  0  0  0  0  0  0  0  0  0  0
    6.1810   48.5979   29.2255 O   0  0  0  0  0  0  0  0  0  0  0  0
    4.7511   48.5642   29.2349 C   0  0  2  0  0  0  0  0  0  0  0  0
    4.2283   49.6280   28.2713 C   0  0  0  0  0  0  0  0  0  0  0  0
    4.2197   48.8251   30.6346 C   0  0  0  0  0  0  0  0  0  0  0  0
    4.8166   49.8547   31.4032 C   0  0  0  0  0  0  0  0  0  0  0  0
    3.1775   48.0295   31.2172 C   0  0  0  0  0  0  0  0  0  0  0  0
    4.3968   50.0319   32.7147 C   0  0  0  0  0  0  0  0  0  0  0  0
    2.8040   48.2457   32.5629 C   0  0  0  0  0  0  0  0  0  0  0  0
    2.4854   47.0200   30.4662 N   0  0  0  0  0  0  0  0  0  0  0  0
    4.8435   50.9530   33.6425 O   0  0  0  0  0  0  0  0  0  0  0  0
    3.4373   49.2580   33.2717 C   0  0  0  0  0  0  0  0  0  0  0  0
    2.0732   45.8659   31.0914 O   0  0  0  0  0  0  0  0  0  0  0  0
    2.0500   47.2743   29.3245 O   0  0  0  0  0  0  0  0  0  0  0  0
    4.1155   50.7428   34.8601 C   0  0  0  0  0  0  0  0  0  0  0  0
    3.2280   49.6517   34.5794 O   0  0  0  0  0  0  0  0  0  0  0  0
    8.8126   40.1848   34.2122 O   0  0  0  0  0  0  0  0  0  0  0  0
   11.2418   40.7943   33.3694 O   0  0  0  0  0  0  0  0  0  0  0  0
   10.9179   40.6904   31.9970 C   0  0  0  0  0  0  0  0  0  0  0  0
   11.5181   39.3814   31.4408 C   0  0  0  0  0  0  0  0  0  0  0  0
   12.7497   39.0870   32.0746 O   0  0  0  0  0  0  0  0  0  0  0  0
   10.6045   38.1891   31.6655 C   0  0  0  0  0  0  0  0  0  0  0  0
   12.9344   37.6801   32.0290 C   0  0  0  0  0  0  0  0  0  0  0  0
    9.6418   38.0758   30.6441 O   0  0  0  0  0  0  0  0  0  0  0  0
   11.5741   37.0170   31.7045 C   0  0  0  0  0  0  0  0  0  0  0  0
   13.4851   37.2125   33.3241 N   0  0  0  0  0  0  0  0  0  0  0  0
   11.6079   36.3407   30.4680 O   0  0  0  0  0  0  0  0  0  0  0  0
   14.4801   36.3321   33.5727 C   0  0  0  0  0  0  0  0  0  0  0  0
   13.1140   37.6277   34.5693 C   0  0  0  0  0  0  0  0  0  0  0  0
   15.2073   35.6155   32.6739 N   0  0  0  0  0  0  0  0  0  0  0  0
   14.6758   36.2306   34.9182 C   0  0  0  0  0  0  0  0  0  0  0  0
   13.8217   37.0451   35.5785 N   0  0  0  0  0  0  0  0  0  0  0  0
   16.1639   34.7602   33.1546 C   0  0  0  0  0  0  0  0  0  0  0  0
   15.6526   35.3506   35.4130 C   0  0  0  0  0  0  0  0  0  0  0  0
   16.3794   34.6316   34.5041 N   0  0  0  0  0  0  0  0  0  0  0  0
   15.9001   35.1933   36.8089 N   0  0  0  0  0  0  0  0  0  0  0  0
    9.0119   45.4316   33.6713 H   0  0  0  0  0  0  0  0  0  0  0  0
   10.7258   46.9689   33.1216 H   0  0  0  0  0  0  0  0  0  0  0  0
   11.8906   45.7661   32.9476 H   0  0  0  0  0  0  0  0  0  0  0  0
   10.7236   44.8825   31.1559 H   0  0  0  0  0  0  0  0  0  0  0  0
    9.3425   43.8331   31.4758 H   0  0  0  0  0  0  0  0  0  0  0  0
    7.0102   44.7148   31.5806 H   0  0  0  0  0  0  0  0  0  0  0  0
   10.3460   47.1859   30.4096 H   0  0  0  0  0  0  0  0  0  0  0  0
    5.4669   46.2822   30.5096 H   0  0  0  0  0  0  0  0  0  0  0  0
    8.7937   48.7706   29.3433 H   0  0  0  0  0  0  0  0  0  0  0  0
    4.4281   47.5757   28.8488 H   0  0  0  0  0  0  0  0  0  0  0  0
    4.5838   50.6369   28.5713 H   0  0  0  0  0  0  0  0  0  0  0  0
    3.1176   49.6250   28.2574 H   0  0  0  0  0  0  0  0  0  0  0  0
    4.5940   49.4153   27.2443 H   0  0  0  0  0  0  0  0  0  0  0  0
    5.6007   50.4816   30.9978 H   0  0  0  0  0  0  0  0  0  0  0  0
    2.0260   47.6585   33.0334 H   0  0  0  0  0  0  0  0  0  0  0  0
    4.8111   50.4695   35.6811 H   0  0  0  0  0  0  0  0  0  0  0  0
    3.5344   51.6518   35.1219 H   0  0  0  0  0  0  0  0  0  0  0  0
    9.8290   40.7386   31.7617 H   0  0  0  0  0  0  0  0  0  0  0  0
   11.3945   41.5459   31.4722 H   0  0  0  0  0  0  0  0  0  0  0  0
   11.6994   39.5069   30.3484 H   0  0  0  0  0  0  0  0  0  0  0  0
   10.1090   38.2635   32.6632 H   0  0  0  0  0  0  0  0  0  0  0  0
   13.6662   37.4515   31.2224 H   0  0  0  0  0  0  0  0  0  0  0  0
    8.9009   38.6925   30.8793 H   0  0  0  0  0  0  0  0  0  0  0  0
   11.2650   36.3083   32.5087 H   0  0  0  0  0  0  0  0  0  0  0  0
   12.1372   35.5140   30.6163 H   0  0  0  0  0  0  0  0  0  0  0  0
   12.3297   38.3530   34.7450 H   0  0  0  0  0  0  0  0  0  0  0  0
   16.7558   34.1781   32.4619 H   0  0  0  0  0  0  0  0  0  0  0  0
   15.3533   35.7360   37.5138 H   0  0  0  0  0  0  0  0  0  0  0  0
   16.6346   34.5300   37.1414 H   0  0  0  0  0  0  0  0  0  0  0  0
  1  2  2  0
  1  3  1  0
  3  4  1  0
  4  5  1  0
  6  1  1  0
  7  6  1  0
  6  8  1  0
  8  9  1  0
  9 10  2  0
 11  9  1  0
 10 12  1  0
 13 11  2  0
 12 14  2  0
 14 13  1  0
 14 15  1  0
 15 16  1  0
 16 17  1  0
 16 18  1  0
 18 19  2  0
 20 18  1  0
 19 21  1  0
 22 20  2  0
 20 23  1  0
 21 24  1  0
 21 25  2  0
 25 22  1  0
 23 26  1  0
 23 27  2  0
 24 28  1  0
 25 29  1  0
 28 29  1  0
  4 30  2  0
  4 31  1  0
 32 31  1  0
 32 33  1  0
 33 34  1  0
 33 35  1  0
 34 36  1  0
 35 37  1  0
 35 38  1  0
 38 36  1  0
 36 39  1  0
 38 40  1  0
 41 39  1  0
 42 39  1  0
 43 41  2  0
 41 44  1  0
 45 42  2  0
 46 43  1  0
 44 47  2  0
 44 45  1  0
 48 46  2  0
 48 47  1  0
 47 49  1  0
  6 50  1  1
  7 51  1  0
  7 52  1  0
  8 53  1  0
  8 54  1  0
 10 55  1  0
 11 56  1  0
 12 57  1  0
 13 58  1  0
 16 59  1  6
 17 60  1  0
 17 61  1  0
 17 62  1  0
 19 63  1  0
 22 64  1  0
 28 65  1  0
 28 66  1  0
 32 67  1  0
 32 68  1  0
 33 69  1  0
 35 70  1  0
 36 71  1  0
 37 72  1  0
 38 73  1  0
 40 74  1  0
 42 75  1  0
 46 76  1  0
 49 77  1  0
 49 78  1  0
M  CHG  3   5  -1  23   1  26  -1
M  END
>  <EmbedRMS>  (415) 
0.0828206975071

$$$$

     RDKit          3D

 78 83  0  0  0  0  0  0  0  0999 V2000
   10.2838   43.7627   33.8276 C   0  0  0  0  0  0  0  0  0  0  0  0
   11.4103   43.5863   34.3766 O   0  0  0  0  0  0  0  0  0  0  0  0
    9.3631   42.7236   33.7352 O   0  0  0  0  0  0  0  0  0  0  0  0
    9.8897   41.2248   34.2935 P   0  0  0  0  0  0  0  0  0  0  0  0
   10.3734   41.4543   35.8829 O   0  0  0  0  0  0  0  0  0  0  0  0
    9.9548   45.0701   33.2065 C   0  0  1  0  0  0  0  0  0  0  0  0
   11.0197   46.0482   33.4572 N   0  0  0  0  0  0  0  0  0  0  0  0
    9.7506   44.8513   31.6924 C   0  0  0  0  0  0  0  0  0  0  0  0
    8.7944   45.8420   31.0871 C   0  0  0  0  0  0  0  0  0  0  0  0
    7.4077   45.6002   31.1001 C   0  0  0  0  0  0  0  0  0  0  0  0
    9.2827   46.9890   30.4440 C   0  0  0  0  0  0  0  0  0  0  0  0
    6.5259   46.4991   30.4845 C   0  0  0  0  0  0  0  0  0  0  0  0
    8.4009   47.8878   29.8323 C   0  0  0  0  0  0  0  0  0  0  0  0
    7.0192   47.6564   29.8477 C   0  0  0  0  0  0  0  0  0  0  0  0
    6.1812   48.5953   29.2239 O   0  0  0  0  0  0  0  0  0  0  0  0
    4.7513   48.5619   29.2333 C   0  0  2  0  0  0  0  0  0  0  0  0
    4.2291   49.6224   28.2655 C   0  0  0  0  0  0  0  0  0  0  0  0
    4.2211   48.8279   30.6321 C   0  0  0  0  0  0  0  0  0  0  0  0
    4.8069   49.8712   31.3905 C   0  0  0  0  0  0  0  0  0  0  0  0
    3.1928   48.0226   31.2239 C   0  0  0  0  0  0  0  0  0  0  0  0
    4.3875   50.0547   32.7013 C   0  0  0  0  0  0  0  0  0  0  0  0
    2.8177   48.2467   32.5687 C   0  0  0  0  0  0  0  0  0  0  0  0
    2.5159   46.9990   30.4781 N   0  0  0  0  0  0  0  0  0  0  0  0
    4.8240   50.9897   33.6200 O   0  0  0  0  0  0  0  0  0  0  0  0
    3.4388   49.2736   33.2672 C   0  0  0  0  0  0  0  0  0  0  0  0
    2.0160   47.2735   29.2262 O   0  0  0  0  0  0  0  0  0  0  0  0
    2.1816   45.9356   31.0402 O   0  0  0  0  0  0  0  0  0  0  0  0
    4.1009   50.7813   34.8408 C   0  0  0  0  0  0  0  0  0  0  0  0
    3.2269   49.6765   34.5716 O   0  0  0  0  0  0  0  0  0  0  0  0
    8.8114   40.1834   34.2126 O   0  0  0  0  0  0  0  0  0  0  0  0
   11.2401   40.7936   33.3673 O   0  0  0  0  0  0  0  0  0  0  0  0
   10.9134   40.6864   31.9955 C   0  0  0  0  0  0  0  0  0  0  0  0
   11.5166   39.3786   31.4404 C   0  0  0  0  0  0  0  0  0  0  0  0
   12.7486   39.0849   32.0734 O   0  0  0  0  0  0  0  0  0  0  0  0
   10.6039   38.1883   31.6669 C   0  0  0  0  0  0  0  0  0  0  0  0
   12.9329   37.6775   32.0284 C   0  0  0  0  0  0  0  0  0  0  0  0
    9.6374   38.0938   30.6484 O   0  0  0  0  0  0  0  0  0  0  0  0
   11.5737   37.0140   31.7055 C   0  0  0  0  0  0  0  0  0  0  0  0
   13.4853   37.2120   33.3238 N   0  0  0  0  0  0  0  0  0  0  0  0
   11.6210   36.3379   30.4683 O   0  0  0  0  0  0  0  0  0  0  0  0
   14.4804   36.3319   33.5726 C   0  0  0  0  0  0  0  0  0  0  0  0
   13.1141   37.6275   34.5689 C   0  0  0  0  0  0  0  0  0  0  0  0
   15.2076   35.6152   32.6740 N   0  0  0  0  0  0  0  0  0  0  0  0
   14.6761   36.2306   34.9181 C   0  0  0  0  0  0  0  0  0  0  0  0
   13.8218   37.0451   35.5783 N   0  0  0  0  0  0  0  0  0  0  0  0
   16.1642   34.7600   33.1548 C   0  0  0  0  0  0  0  0  0  0  0  0
   15.6527   35.3506   35.4131 C   0  0  0  0  0  0  0  0  0  0  0  0
   16.3795   34.6315   34.5043 N   0  0  0  0  0  0  0  0  0  0  0  0
   15.9000   35.1933   36.8090 N   0  0  0  0  0  0  0  0  0  0  0  0
    9.0097   45.4349   33.6670 H   0  0  0  0  0  0  0  0  0  0  0  0
   11.9349   45.6934   33.0931 H   0  0  0  0  0  0  0  0  0  0  0  0
   11.1130   46.1994   34.4886 H   0  0  0  0  0  0  0  0  0  0  0  0
   10.7310   44.8934   31.1677 H   0  0  0  0  0  0  0  0  0  0  0  0
    9.3519   43.8346   31.4759 H   0  0  0  0  0  0  0  0  0  0  0  0
    7.0127   44.7140   31.5815 H   0  0  0  0  0  0  0  0  0  0  0  0
   10.3467   47.1891   30.4141 H   0  0  0  0  0  0  0  0  0  0  0  0
    5.4685   46.2796   30.5088 H   0  0  0  0  0  0  0  0  0  0  0  0
    8.7936   48.7706   29.3440 H   0  0  0  0  0  0  0  0  0  0  0  0
    4.4271   47.5723   28.8511 H   0  0  0  0  0  0  0  0  0  0  0  0
    4.5908   49.4028   27.2386 H   0  0  0  0  0  0  0  0  0  0  0  0
    4.5892   50.6317   28.5587 H   0  0  0  0  0  0  0  0  0  0  0  0
    3.1185   49.6238   28.2550 H   0  0  0  0  0  0  0  0  0  0  0  0
    5.5824   50.5041   30.9779 H   0  0  0  0  0  0  0  0  0  0  0  0
    2.0485   47.6531   33.0458 H   0  0  0  0  0  0  0  0  0  0  0  0
    4.8012   50.5243   35.6630 H   0  0  0  0  0  0  0  0  0  0  0  0
    3.5086   51.6851   35.0954 H   0  0  0  0  0  0  0  0  0  0  0  0
    9.8226   40.7226   31.7628 H   0  0  0  0  0  0  0  0  0  0  0  0
   11.3831   41.5438   31.4675 H   0  0  0  0  0  0  0  0  0  0  0  0
   11.6978   39.5037   30.3478 H   0  0  0  0  0  0  0  0  0  0  0  0
   10.1084   38.2786   32.6626 H   0  0  0  0  0  0  0  0  0  0  0  0
   13.6638   37.4471   31.2214 H   0  0  0  0  0  0  0  0  0  0  0  0
    8.9763   37.4190   30.9532 H   0  0  0  0  0  0  0  0  0  0  0  0
   11.2821   36.3054   32.5171 H   0  0  0  0  0  0  0  0  0  0  0  0
   10.8658   35.6935   30.4652 H   0  0  0  0  0  0  0  0  0  0  0  0
   12.3293   38.3523   34.7444 H   0  0  0  0  0  0  0  0  0  0  0  0
   16.7561   34.1778   32.4621 H   0  0  0  0  0  0  0  0  0  0  0  0
   15.3533   35.7361   37.5138 H   0  0  0  0  0  0  0  0  0  0  0  0
   16.6345   34.5300   37.1416 H   0  0  0  0  0  0  0  0  0  0  0  0
  1  2  2  0
  1  3  1  0
  3  4  1  0
  4  5  1  0
  6  1  1  0
  7  6  1  0
  6  8  1  0
  8  9  1  0
  9 10  2  0
 11  9  1  0
 10 12  1  0
 13 11  2  0
 12 14  2  0
 14 13  1  0
 14 15  1  0
 15 16  1  0
 16 17  1  0
 16 18  1  0
 18 19  2  0
 20 18  1  0
 19 21  1  0
 22 20  2  0
 20 23  1  0
 21 24  1  0
 21 25  2  0
 25 22  1  0
 23 26  1  0
 23 27  2  0
 24 28  1  0
 25 29  1  0
 28 29  1  0
  4 30  2  0
  4 31  1  0
 32 31  1  0
 32 33  1  0
 33 34  1  0
 33 35  1  0
 34 36  1  0
 35 37  1  0
 35 38  1  0
 38 36  1  0
 36 39  1  0
 38 40  1  0
 41 39  1  0
 42 39  1  0
 43 41  2  0
 41 44  1  0
 45 42  2  0
 46 43  1  0
 44 47  2  0
 44 45  1  0
 48 46  2  0
 48 47  1  0
 47 49  1  0
  6 50  1  1
  7 51  1  0
  7 52  1  0
  8 53  1  0
  8 54  1  0
 10 55  1  0
 11 56  1  0
 12 57  1  0
 13 58  1  0
 16 59  1  6
 17 60  1  0
 17 61  1  0
 17 62  1  0
 19 63  1  0
 22 64  1  0
 28 65  1  0
 28 66  1  0
 32 67  1  0
 32 68  1  0
 33 69  1  0
 35 70  1  0
 36 71  1  0
 37 72  1  0
 38 73  1  0
 40 74  1  0
 42 75  1  0
 46 76  1  0
 49 77  1  0
 49 78  1  0
M  CHG  3   5  -1  23   1  26  -1
M  END
>  <EmbedRMS>  (416) 
0.0834358524277

$$$$

     RDKit          3D

 78 83  0  0  0  0  0  0  0  0999 V2000
   10.2834   43.7662   33.8258 C   0  0  0  0  0  0  0  0  0  0  0  0
   11.4102   43.5930   34.3752 O   0  0  0  0  0  0  0  0  0  0  0  0
    9.3635   42.7257   33.7353 O   0  0  0  0  0  0  0  0  0  0  0  0
    9.8902   41.2268   34.2942 P   0  0  0  0  0  0  0  0  0  0  0  0
   10.3739   41.4559   35.8835 O   0  0  0  0  0  0  0  0  0  0  0  0
    9.9547   45.0695   33.2037 C   0  0  1  0  0  0  0  0  0  0  0  0
   11.0274   46.0322   33.4757 N   0  0  0  0  0  0  0  0  0  0  0  0
    9.7465   44.8481   31.6879 C   0  0  0  0  0  0  0  0  0  0  0  0
    8.7923   45.8409   31.0849 C   0  0  0  0  0  0  0  0  0  0  0  0
    7.4058   45.6013   31.0986 C   0  0  0  0  0  0  0  0  0  0  0  0
    9.2820   46.9873   30.4420 C   0  0  0  0  0  0  0  0  0  0  0  0
    6.5273   46.5025   30.4829 C   0  0  0  0  0  0  0  0  0  0  0  0
    8.4033   47.8895   29.8305 C   0  0  0  0  0  0  0  0  0  0  0  0
    7.0131   47.6547   29.8492 C   0  0  0  0  0  0  0  0  0  0  0  0
    6.0817   48.5195   29.2508 O   0  0  0  0  0  0  0  0  0  0  0  0
    6.3592   49.8094   28.7028 C   0  0  2  0  0  0  0  0  0  0  0  0
    6.6643   50.8298   29.8084 C   0  0  0  0  0  0  0  0  0  0  0  0
    5.1894   50.2620   27.8420 C   0  0  0  0  0  0  0  0  0  0  0  0
    5.4374   50.5116   26.4685 C   0  0  0  0  0  0  0  0  0  0  0  0
    3.8667   50.4894   28.3622 C   0  0  0  0  0  0  0  0  0  0  0  0
    4.3995   50.9855   25.6775 C   0  0  0  0  0  0  0  0  0  0  0  0
    2.8562   50.9884   27.5100 C   0  0  0  0  0  0  0  0  0  0  0  0
    3.5304   50.2454   29.7357 N   0  0  0  0  0  0  0  0  0  0  0  0
    4.4193   51.2979   24.3317 O   0  0  0  0  0  0  0  0  0  0  0  0
    3.1648   51.2169   26.1767 C   0  0  0  0  0  0  0  0  0  0  0  0
    2.7357   51.1446   30.4085 O   0  0  0  0  0  0  0  0  0  0  0  0
    3.7271   49.1227   30.2422 O   0  0  0  0  0  0  0  0  0  0  0  0
    3.1102   51.7539   23.9642 C   0  0  0  0  0  0  0  0  0  0  0  0
    2.3405   51.6865   25.1723 O   0  0  0  0  0  0  0  0  0  0  0  0
    8.8121   40.1851   34.2131 O   0  0  0  0  0  0  0  0  0  0  0  0
   11.2402   40.7952   33.3682 O   0  0  0  0  0  0  0  0  0  0  0  0
   10.9125   40.6877   31.9969 C   0  0  0  0  0  0  0  0  0  0  0  0
   11.5169   39.3811   31.4421 C   0  0  0  0  0  0  0  0  0  0  0  0
   12.7500   39.0881   32.0759 O   0  0  0  0  0  0  0  0  0  0  0  0
   10.6043   38.1893   31.6659 C   0  0  0  0  0  0  0  0  0  0  0  0
   12.9395   37.6814   32.0280 C   0  0  0  0  0  0  0  0  0  0  0  0
    9.6353   38.0951   30.6499 O   0  0  0  0  0  0  0  0  0  0  0  0
   11.5804   37.0191   31.6934 C   0  0  0  0  0  0  0  0  0  0  0  0
   13.4851   37.2119   33.3244 N   0  0  0  0  0  0  0  0  0  0  0  0
   11.6118   36.3189   30.4673 O   0  0  0  0  0  0  0  0  0  0  0  0
   14.4801   36.3316   33.5732 C   0  0  0  0  0  0  0  0  0  0  0  0
   13.1139   37.6277   34.5692 C   0  0  0  0  0  0  0  0  0  0  0  0
   15.2076   35.6154   32.6744 N   0  0  0  0  0  0  0  0  0  0  0  0
   14.6756   36.2303   34.9186 C   0  0  0  0  0  0  0  0  0  0  0  0
   13.8215   37.0451   35.5786 N   0  0  0  0  0  0  0  0  0  0  0  0
   16.1642   34.7602   33.1551 C   0  0  0  0  0  0  0  0  0  0  0  0
   15.6526   35.3505   35.4134 C   0  0  0  0  0  0  0  0  0  0  0  0
   16.3796   34.6316   34.5046 N   0  0  0  0  0  0  0  0  0  0  0  0
   15.9000   35.1933   36.8093 N   0  0  0  0  0  0  0  0  0  0  0  0
    9.0121   45.4319   33.6716 H   0  0  0  0  0  0  0  0  0  0  0  0
   11.8907   45.7657   32.9470 H   0  0  0  0  0  0  0  0  0  0  0  0
   10.7261   46.9687   33.1212 H   0  0  0  0  0  0  0  0  0  0  0  0
    9.3413   43.8330   31.4765 H   0  0  0  0  0  0  0  0  0  0  0  0
   10.7229   44.8814   31.1558 H   0  0  0  0  0  0  0  0  0  0  0  0
    7.0086   44.7162   31.5801 H   0  0  0  0  0  0  0  0  0  0  0  0
   10.3469   47.1827   30.4090 H   0  0  0  0  0  0  0  0  0  0  0  0
    5.4628   46.3056   30.5006 H   0  0  0  0  0  0  0  0  0  0  0  0
    8.8226   48.7555   29.3401 H   0  0  0  0  0  0  0  0  0  0  0  0
    7.2623   49.7337   28.0593 H   0  0  0  0  0  0  0  0  0  0  0  0
    6.7568   51.8481   29.3738 H   0  0  0  0  0  0  0  0  0  0  0  0
    5.8728   50.8377   30.5836 H   0  0  0  0  0  0  0  0  0  0  0  0
    7.6231   50.5838   30.3082 H   0  0  0  0  0  0  0  0  0  0  0  0
    6.4140   50.3553   26.0279 H   0  0  0  0  0  0  0  0  0  0  0  0
    1.8546   51.1757   27.8752 H   0  0  0  0  0  0  0  0  0  0  0  0
    2.6729   51.0854   23.1933 H   0  0  0  0  0  0  0  0  0  0  0  0
    3.1571   52.8008   23.5976 H   0  0  0  0  0  0  0  0  0  0  0  0
    9.8216   40.7222   31.7647 H   0  0  0  0  0  0  0  0  0  0  0  0
   11.3808   41.5456   31.4685 H   0  0  0  0  0  0  0  0  0  0  0  0
   11.6986   39.5089   30.3499 H   0  0  0  0  0  0  0  0  0  0  0  0
   10.1109   38.2737   32.6630 H   0  0  0  0  0  0  0  0  0  0  0  0
   13.6783   37.4562   31.2271 H   0  0  0  0  0  0  0  0  0  0  0  0
    9.0020   37.3860   30.9348 H   0  0  0  0  0  0  0  0  0  0  0  0
   11.2808   36.3052   32.4921 H   0  0  0  0  0  0  0  0  0  0  0  0
   11.8818   36.9600   29.7584 H   0  0  0  0  0  0  0  0  0  0  0  0
   12.3303   38.3538   34.7445 H   0  0  0  0  0  0  0  0  0  0  0  0
   16.7564   34.1783   32.4624 H   0  0  0  0  0  0  0  0  0  0  0  0
   15.3532   35.7359   37.5142 H   0  0  0  0  0  0  0  0  0  0  0  0
   16.6347   34.5301   37.1418 H   0  0  0  0  0  0  0  0  0  0  0  0
  1  2  2  0
  1  3  1  0
  3  4  1  0
  4  5  1  0
  6  1  1  0
  7  6  1  0
  6  8  1  0
  8  9  1  0
  9 10  2  0
 11  9  1  0
 10 12  1  0
 13 11  2  0
 12 14  2  0
 14 13  1  0
 14 15  1  0
 15 16  1  0
 16 17  1  0
 16 18  1  0
 18 19  2  0
 20 18  1  0
 19 21  1  0
 22 20  2  0
 20 23  1  0
 21 24  1  0
 21 25  2  0
 25 22  1  0
 23 26  1  0
 23 27  2  0
 24 28  1  0
 25 29  1  0
 28 29  1  0
  4 30  2  0
  4 31  1  0
 32 31  1  0
 32 33  1  0
 33 34  1  0
 33 35  1  0
 34 36  1  0
 35 37  1  0
 35 38  1  0
 38 36  1  0
 36 39  1  0
 38 40  1  0
 41 39  1  0
 42 39  1  0
 43 41  2  0
 41 44  1  0
 45 42  2  0
 46 43  1  0
 44 47  2  0
 44 45  1  0
 48 46  2  0
 48 47  1  0
 47 49  1  0
  6 50  1  1
  7 51  1  0
  7 52  1  0
  8 53  1  0
  8 54  1  0
 10 55  1  0
 11 56  1  0
 12 57  1  0
 13 58  1  0
 16 59  1  6
 17 60  1  0
 17 61  1  0
 17 62  1  0
 19 63  1  0
 22 64  1  0
 28 65  1  0
 28 66  1  0
 32 67  1  0
 32 68  1  0
 33 69  1  0
 35 70  1  0
 36 71  1  0
 37 72  1  0
 38 73  1  0
 40 74  1  0
 42 75  1  0
 46 76  1  0
 49 77  1  0
 49 78  1  0
M  CHG  3   5  -1  23   1  26  -1
M  END
>  <EmbedRMS>  (417) 
0.0815520066091

$$$$

     RDKit          3D

 78 83  0  0  0  0  0  0  0  0999 V2000
   10.2804   43.7664   33.8250 C   0  0  0  0  0  0  0  0  0  0  0  0
   11.4110   43.5918   34.3666 O   0  0  0  0  0  0  0  0  0  0  0  0
    9.3618   42.7249   33.7345 O   0  0  0  0  0  0  0  0  0  0  0  0
    9.8899   41.2267   34.2940 P   0  0  0  0  0  0  0  0  0  0  0  0
   10.3735   41.4566   35.8832 O   0  0  0  0  0  0  0  0  0  0  0  0
    9.9459   45.0736   33.2111 C   0  0  1  0  0  0  0  0  0  0  0  0
   11.0267   46.0291   33.4705 N   0  0  0  0  0  0  0  0  0  0  0  0
    9.7535   44.8538   31.6948 C   0  0  0  0  0  0  0  0  0  0  0  0
    8.7955   45.8410   31.0846 C   0  0  0  0  0  0  0  0  0  0  0  0
    7.4086   45.6008   31.1012 C   0  0  0  0  0  0  0  0  0  0  0  0
    9.2830   46.9878   30.4401 C   0  0  0  0  0  0  0  0  0  0  0  0
    6.5281   46.5014   30.4861 C   0  0  0  0  0  0  0  0  0  0  0  0
    8.4025   47.8895   29.8313 C   0  0  0  0  0  0  0  0  0  0  0  0
    7.0136   47.6501   29.8463 C   0  0  0  0  0  0  0  0  0  0  0  0
    6.0871   48.5164   29.2431 O   0  0  0  0  0  0  0  0  0  0  0  0
    6.4184   49.6757   28.4737 C   0  0  2  0  0  0  0  0  0  0  0  0
    5.1383   50.4610   28.1933 C   0  0  0  0  0  0  0  0  0  0  0  0
    7.0805   49.2762   27.1658 C   0  0  0  0  0  0  0  0  0  0  0  0
    6.5286   48.1992   26.4296 C   0  0  0  0  0  0  0  0  0  0  0  0
    8.2717   49.9153   26.6876 C   0  0  0  0  0  0  0  0  0  0  0  0
    7.1854   47.7741   25.2825 C   0  0  0  0  0  0  0  0  0  0  0  0
    8.9051   49.4283   25.5210 C   0  0  0  0  0  0  0  0  0  0  0  0
    8.8336   51.0559   27.3551 N   0  0  0  0  0  0  0  0  0  0  0  0
    6.8400   46.7469   24.4256 O   0  0  0  0  0  0  0  0  0  0  0  0
    8.3261   48.3591   24.8503 C   0  0  0  0  0  0  0  0  0  0  0  0
    8.0298   52.1160   27.7051 O   0  0  0  0  0  0  0  0  0  0  0  0
   10.0727   51.1925   27.4202 O   0  0  0  0  0  0  0  0  0  0  0  0
    7.8284   46.6851   23.3882 C   0  0  0  0  0  0  0  0  0  0  0  0
    8.7584   47.7322   23.6976 O   0  0  0  0  0  0  0  0  0  0  0  0
    8.8123   40.1844   34.2134 O   0  0  0  0  0  0  0  0  0  0  0  0
   11.2402   40.7944   33.3688 O   0  0  0  0  0  0  0  0  0  0  0  0
   10.9142   40.6898   31.9970 C   0  0  0  0  0  0  0  0  0  0  0  0
   11.5260   39.3884   31.4376 C   0  0  0  0  0  0  0  0  0  0  0  0
   12.7504   39.0888   32.0816 O   0  0  0  0  0  0  0  0  0  0  0  0
   10.6114   38.1909   31.6460 C   0  0  0  0  0  0  0  0  0  0  0  0
   12.9357   37.6812   32.0303 C   0  0  0  0  0  0  0  0  0  0  0  0
    9.6145   38.0858   30.6533 O   0  0  0  0  0  0  0  0  0  0  0  0
   11.5769   37.0148   31.7012 C   0  0  0  0  0  0  0  0  0  0  0  0
   13.4849   37.2112   33.3247 N   0  0  0  0  0  0  0  0  0  0  0  0
   11.6193   36.3261   30.4724 O   0  0  0  0  0  0  0  0  0  0  0  0
   14.4802   36.3313   33.5730 C   0  0  0  0  0  0  0  0  0  0  0  0
   13.1141   37.6268   34.5698 C   0  0  0  0  0  0  0  0  0  0  0  0
   15.2075   35.6151   32.6741 N   0  0  0  0  0  0  0  0  0  0  0  0
   14.6761   36.2300   34.9184 C   0  0  0  0  0  0  0  0  0  0  0  0
   13.8220   37.0445   35.5789 N   0  0  0  0  0  0  0  0  0  0  0  0
   16.1642   34.7600   33.1547 C   0  0  0  0  0  0  0  0  0  0  0  0
   15.6529   35.3503   35.4131 C   0  0  0  0  0  0  0  0  0  0  0  0
   16.3797   34.6314   34.5042 N   0  0  0  0  0  0  0  0  0  0  0  0
   15.9004   35.1930   36.8090 N   0  0  0  0  0  0  0  0  0  0  0  0
    8.9996   45.4382   33.6722 H   0  0  0  0  0  0  0  0  0  0  0  0
   11.0504   46.2277   34.4979 H   0  0  0  0  0  0  0  0  0  0  0  0
   10.7764   46.9368   33.0155 H   0  0  0  0  0  0  0  0  0  0  0  0
   10.7406   44.9069   31.1833 H   0  0  0  0  0  0  0  0  0  0  0  0
    9.3636   43.8352   31.4714 H   0  0  0  0  0  0  0  0  0  0  0  0
    7.0130   44.7166   31.5856 H   0  0  0  0  0  0  0  0  0  0  0  0
   10.3471   47.1870   30.4078 H   0  0  0  0  0  0  0  0  0  0  0  0
    5.4638   46.3038   30.5045 H   0  0  0  0  0  0  0  0  0  0  0  0
    8.8150   48.7658   29.3527 H   0  0  0  0  0  0  0  0  0  0  0  0
    7.0781   50.3212   29.0892 H   0  0  0  0  0  0  0  0  0  0  0  0
    4.4063   49.8332   27.6416 H   0  0  0  0  0  0  0  0  0  0  0  0
    4.6777   50.7809   29.1519 H   0  0  0  0  0  0  0  0  0  0  0  0
    5.3637   51.3668   27.5912 H   0  0  0  0  0  0  0  0  0  0  0  0
    5.6279   47.6940   26.7548 H   0  0  0  0  0  0  0  0  0  0  0  0
    9.8078   49.8858   25.1368 H   0  0  0  0  0  0  0  0  0  0  0  0
    8.3408   45.7004   23.4042 H   0  0  0  0  0  0  0  0  0  0  0  0
    7.3590   46.8694   22.3992 H   0  0  0  0  0  0  0  0  0  0  0  0
   11.3777   41.5525   31.4723 H   0  0  0  0  0  0  0  0  0  0  0  0
    9.8232   40.7190   31.7645 H   0  0  0  0  0  0  0  0  0  0  0  0
   11.7283   39.5311   30.3515 H   0  0  0  0  0  0  0  0  0  0  0  0
   10.1127   38.2734   32.6376 H   0  0  0  0  0  0  0  0  0  0  0  0
   13.6692   37.4566   31.2242 H   0  0  0  0  0  0  0  0  0  0  0  0
   10.0533   38.1118   29.7635 H   0  0  0  0  0  0  0  0  0  0  0  0
   11.2607   36.3148   32.5102 H   0  0  0  0  0  0  0  0  0  0  0  0
   12.1496   35.5023   30.6324 H   0  0  0  0  0  0  0  0  0  0  0  0
   12.3301   38.3524   34.7455 H   0  0  0  0  0  0  0  0  0  0  0  0
   16.7562   34.1781   32.4619 H   0  0  0  0  0  0  0  0  0  0  0  0
   16.6351   34.5298   37.1415 H   0  0  0  0  0  0  0  0  0  0  0  0
   15.3536   35.7357   37.5140 H   0  0  0  0  0  0  0  0  0  0  0  0
  1  2  2  0
  1  3  1  0
  3  4  1  0
  4  5  1  0
  6  1  1  0
  7  6  1  0
  6  8  1  0
  8  9  1  0
  9 10  2  0
 11  9  1  0
 10 12  1  0
 13 11  2  0
 12 14  2  0
 14 13  1  0
 14 15  1  0
 15 16  1  0
 16 17  1  0
 16 18  1  0
 18 19  2  0
 20 18  1  0
 19 21  1  0
 22 20  2  0
 20 23  1  0
 21 24  1  0
 21 25  2  0
 25 22  1  0
 23 26  1  0
 23 27  2  0
 24 28  1  0
 25 29  1  0
 28 29  1  0
  4 30  2  0
  4 31  1  0
 32 31  1  0
 32 33  1  0
 33 34  1  0
 33 35  1  0
 34 36  1  0
 35 37  1  0
 35 38  1  0
 38 36  1  0
 36 39  1  0
 38 40  1  0
 41 39  1  0
 42 39  1  0
 43 41  2  0
 41 44  1  0
 45 42  2  0
 46 43  1  0
 44 47  2  0
 44 45  1  0
 48 46  2  0
 48 47  1  0
 47 49  1  0
  6 50  1  1
  7 51  1  0
  7 52  1  0
  8 53  1  0
  8 54  1  0
 10 55  1  0
 11 56  1  0
 12 57  1  0
 13 58  1  0
 16 59  1  1
 17 60  1  0
 17 61  1  0
 17 62  1  0
 19 63  1  0
 22 64  1  0
 28 65  1  0
 28 66  1  0
 32 67  1  0
 32 68  1  0
 33 69  1  0
 35 70  1  0
 36 71  1  0
 37 72  1  0
 38 73  1  0
 40 74  1  0
 42 75  1  0
 46 76  1  0
 49 77  1  0
 49 78  1  0
M  CHG  3   5  -1  23   1  26  -1
M  END
>  <EmbedRMS>  (418) 
0.0814543297666

$$$$

     RDKit          3D

 78 83  0  0  0  0  0  0  0  0999 V2000
   10.2835   43.7631   33.8280 C   0  0  0  0  0  0  0  0  0  0  0  0
   11.4101   43.5868   34.3767 O   0  0  0  0  0  0  0  0  0  0  0  0
    9.3634   42.7236   33.7347 O   0  0  0  0  0  0  0  0  0  0  0  0
    9.8898   41.2251   34.2945 P   0  0  0  0  0  0  0  0  0  0  0  0
   10.3713   41.4543   35.8847 O   0  0  0  0  0  0  0  0  0  0  0  0
    9.9541   45.0706   33.2078 C   0  0  1  0  0  0  0  0  0  0  0  0
   11.0196   46.0486   33.4577 N   0  0  0  0  0  0  0  0  0  0  0  0
    9.7487   44.8518   31.6939 C   0  0  0  0  0  0  0  0  0  0  0  0
    8.7931   45.8427   31.0887 C   0  0  0  0  0  0  0  0  0  0  0  0
    7.4058   45.6038   31.1032 C   0  0  0  0  0  0  0  0  0  0  0  0
    9.2829   46.9904   30.4484 C   0  0  0  0  0  0  0  0  0  0  0  0
    6.5274   46.5043   30.4850 C   0  0  0  0  0  0  0  0  0  0  0  0
    8.4046   47.8891   29.8319 C   0  0  0  0  0  0  0  0  0  0  0  0
    7.0169   47.6458   29.8354 C   0  0  0  0  0  0  0  0  0  0  0  0
    6.0987   48.4906   29.1901 O   0  0  0  0  0  0  0  0  0  0  0  0
    6.4430   49.5753   28.3225 C   0  0  2  0  0  0  0  0  0  0  0  0
    5.1642   50.3009   27.9101 C   0  0  0  0  0  0  0  0  0  0  0  0
    7.1692   49.0735   27.0824 C   0  0  0  0  0  0  0  0  0  0  0  0
    6.7492   47.8523   26.4977 C   0  0  0  0  0  0  0  0  0  0  0  0
    8.2087   49.8306   26.4457 C   0  0  0  0  0  0  0  0  0  0  0  0
    7.3825   47.4156   25.3422 C   0  0  0  0  0  0  0  0  0  0  0  0
    8.8027   49.3448   25.2599 C   0  0  0  0  0  0  0  0  0  0  0  0
    8.6502   51.0943   26.9608 N   0  0  0  0  0  0  0  0  0  0  0  0
    7.1516   46.2600   24.6218 O   0  0  0  0  0  0  0  0  0  0  0  0
    8.3663   48.1297   24.7493 C   0  0  0  0  0  0  0  0  0  0  0  0
    8.8529   52.1424   26.0928 O   0  0  0  0  0  0  0  0  0  0  0  0
    9.1258   51.1682   28.1117 O   0  0  0  0  0  0  0  0  0  0  0  0
    8.0542   46.2468   23.5077 C   0  0  0  0  0  0  0  0  0  0  0  0
    8.8093   47.4611   23.6249 O   0  0  0  0  0  0  0  0  0  0  0  0
    8.8120   40.1833   34.2121 O   0  0  0  0  0  0  0  0  0  0  0  0
   11.2416   40.7939   33.3705 O   0  0  0  0  0  0  0  0  0  0  0  0
   10.9189   40.6913   31.9975 C   0  0  0  0  0  0  0  0  0  0  0  0
   11.5175   39.3816   31.4410 C   0  0  0  0  0  0  0  0  0  0  0  0
   12.7493   39.0853   32.0734 O   0  0  0  0  0  0  0  0  0  0  0  0
   10.6024   38.1909   31.6666 C   0  0  0  0  0  0  0  0  0  0  0  0
   12.9318   37.6778   32.0281 C   0  0  0  0  0  0  0  0  0  0  0  0
    9.6393   38.0800   30.6454 O   0  0  0  0  0  0  0  0  0  0  0  0
   11.5713   37.0163   31.7059 C   0  0  0  0  0  0  0  0  0  0  0  0
   13.4850   37.2114   33.3232 N   0  0  0  0  0  0  0  0  0  0  0  0
   11.6185   36.3383   30.4697 O   0  0  0  0  0  0  0  0  0  0  0  0
   14.4805   36.3315   33.5720 C   0  0  0  0  0  0  0  0  0  0  0  0
   13.1144   37.6268   34.5683 C   0  0  0  0  0  0  0  0  0  0  0  0
   15.2071   35.6142   32.6734 N   0  0  0  0  0  0  0  0  0  0  0  0
   14.6767   36.2306   34.9174 C   0  0  0  0  0  0  0  0  0  0  0  0
   13.8224   37.0448   35.5777 N   0  0  0  0  0  0  0  0  0  0  0  0
   16.1641   34.7594   33.1540 C   0  0  0  0  0  0  0  0  0  0  0  0
   15.6532   35.3505   35.4123 C   0  0  0  0  0  0  0  0  0  0  0  0
   16.3800   34.6312   34.5035 N   0  0  0  0  0  0  0  0  0  0  0  0
   15.8999   35.1930   36.8082 N   0  0  0  0  0  0  0  0  0  0  0  0
    9.0093   45.4348   33.6697 H   0  0  0  0  0  0  0  0  0  0  0  0
   11.1144   46.1985   34.4890 H   0  0  0  0  0  0  0  0  0  0  0  0
   11.9343   45.6946   33.0917 H   0  0  0  0  0  0  0  0  0  0  0  0
   10.7286   44.8930   31.1688 H   0  0  0  0  0  0  0  0  0  0  0  0
    9.3493   43.8357   31.4775 H   0  0  0  0  0  0  0  0  0  0  0  0
    7.0078   44.7190   31.5849 H   0  0  0  0  0  0  0  0  0  0  0  0
   10.3471   47.1898   30.4237 H   0  0  0  0  0  0  0  0  0  0  0  0
    5.4636   46.3041   30.4952 H   0  0  0  0  0  0  0  0  0  0  0  0
    8.8171   48.7613   29.3471 H   0  0  0  0  0  0  0  0  0  0  0  0
    7.0537   50.2945   28.8995 H   0  0  0  0  0  0  0  0  0  0  0  0
    4.4815   49.6114   27.3681 H   0  0  0  0  0  0  0  0  0  0  0  0
    4.6407   50.6811   28.8130 H   0  0  0  0  0  0  0  0  0  0  0  0
    5.4073   51.1641   27.2535 H   0  0  0  0  0  0  0  0  0  0  0  0
    5.9512   47.2614   26.9290 H   0  0  0  0  0  0  0  0  0  0  0  0
    9.5889   49.8941   24.7594 H   0  0  0  0  0  0  0  0  0  0  0  0
    8.7293   45.3676   23.5718 H   0  0  0  0  0  0  0  0  0  0  0  0
    7.4881   46.2386   22.5532 H   0  0  0  0  0  0  0  0  0  0  0  0
    9.8300   40.7407   31.7614 H   0  0  0  0  0  0  0  0  0  0  0  0
   11.3981   41.5461   31.4736 H   0  0  0  0  0  0  0  0  0  0  0  0
   11.6984   39.5069   30.3483 H   0  0  0  0  0  0  0  0  0  0  0  0
   10.1076   38.2647   32.6645 H   0  0  0  0  0  0  0  0  0  0  0  0
   13.6613   37.4466   31.2200 H   0  0  0  0  0  0  0  0  0  0  0  0
    8.8975   38.6945   30.8835 H   0  0  0  0  0  0  0  0  0  0  0  0
   11.2799   36.3063   32.5167 H   0  0  0  0  0  0  0  0  0  0  0  0
   10.8489   35.7112   30.4590 H   0  0  0  0  0  0  0  0  0  0  0  0
   12.3302   38.3519   34.7435 H   0  0  0  0  0  0  0  0  0  0  0  0
   16.7557   34.1772   32.4610 H   0  0  0  0  0  0  0  0  0  0  0  0
   15.3523   35.7364   37.5120 H   0  0  0  0  0  0  0  0  0  0  0  0
   16.6342   34.5296   37.1409 H   0  0  0  0  0  0  0  0  0  0  0  0
  1  2  2  0
  1  3  1  0
  3  4  1  0
  4  5  1  0
  6  1  1  0
  7  6  1  0
  6  8  1  0
  8  9  1  0
  9 10  2  0
 11  9  1  0
 10 12  1  0
 13 11  2  0
 12 14  2  0
 14 13  1  0
 14 15  1  0
 15 16  1  0
 16 17  1  0
 16 18  1  0
 18 19  2  0
 20 18  1  0
 19 21  1  0
 22 20  2  0
 20 23  1  0
 21 24  1  0
 21 25  2  0
 25 22  1  0
 23 26  1  0
 23 27  2  0
 24 28  1  0
 25 29  1  0
 28 29  1  0
  4 30  2  0
  4 31  1  0
 32 31  1  0
 32 33  1  0
 33 34  1  0
 33 35  1  0
 34 36  1  0
 35 37  1  0
 35 38  1  0
 38 36  1  0
 36 39  1  0
 38 40  1  0
 41 39  1  0
 42 39  1  0
 43 41  2  0
 41 44  1  0
 45 42  2  0
 46 43  1  0
 44 47  2  0
 44 45  1  0
 48 46  2  0
 48 47  1  0
 47 49  1  0
  6 50  1  1
  7 51  1  0
  7 52  1  0
  8 53  1  0
  8 54  1  0
 10 55  1  0
 11 56  1  0
 12 57  1  0
 13 58  1  0
 16 59  1  1
 17 60  1  0
 17 61  1  0
 17 62  1  0
 19 63  1  0
 22 64  1  0
 28 65  1  0
 28 66  1  0
 32 67  1  0
 32 68  1  0
 33 69  1  0
 35 70  1  0
 36 71  1  0
 37 72  1  0
 38 73  1  0
 40 74  1  0
 42 75  1  0
 46 76  1  0
 49 77  1  0
 49 78  1  0
M  CHG  3   5  -1  23   1  26  -1
M  END
>  <EmbedRMS>  (419) 
0.0838696848713

$$$$

     RDKit          3D

 78 83  0  0  0  0  0  0  0  0999 V2000
   10.2835   43.7661   33.8256 C   0  0  0  0  0  0  0  0  0  0  0  0
   11.4102   43.5930   34.3753 O   0  0  0  0  0  0  0  0  0  0  0  0
    9.3638   42.7255   33.7351 O   0  0  0  0  0  0  0  0  0  0  0  0
    9.8904   41.2268   34.2946 P   0  0  0  0  0  0  0  0  0  0  0  0
   10.3729   41.4561   35.8842 O   0  0  0  0  0  0  0  0  0  0  0  0
    9.9547   45.0694   33.2035 C   0  0  1  0  0  0  0  0  0  0  0  0
   11.0274   46.0321   33.4755 N   0  0  0  0  0  0  0  0  0  0  0  0
    9.7465   44.8480   31.6876 C   0  0  0  0  0  0  0  0  0  0  0  0
    8.7923   45.8408   31.0844 C   0  0  0  0  0  0  0  0  0  0  0  0
    7.4055   45.6018   31.0994 C   0  0  0  0  0  0  0  0  0  0  0  0
    9.2823   46.9879   30.4426 C   0  0  0  0  0  0  0  0  0  0  0  0
    6.5267   46.5034   30.4845 C   0  0  0  0  0  0  0  0  0  0  0  0
    8.4033   47.8903   29.8323 C   0  0  0  0  0  0  0  0  0  0  0  0
    7.0141   47.6519   29.8461 C   0  0  0  0  0  0  0  0  0  0  0  0
    6.0890   48.5162   29.2375 O   0  0  0  0  0  0  0  0  0  0  0  0
    6.4216   49.6853   28.4853 C   0  0  2  0  0  0  0  0  0  0  0  0
    5.1596   50.5021   28.2099 C   0  0  0  0  0  0  0  0  0  0  0  0
    7.1369   49.3508   27.1842 C   0  0  0  0  0  0  0  0  0  0  0  0
    8.1096   50.2724   26.7265 C   0  0  0  0  0  0  0  0  0  0  0  0
    6.9118   48.1422   26.4360 C   0  0  0  0  0  0  0  0  0  0  0  0
    8.8348   49.9643   25.5836 C   0  0  0  0  0  0  0  0  0  0  0  0
    7.6942   47.8772   25.2892 C   0  0  0  0  0  0  0  0  0  0  0  0
    5.9230   47.1740   26.8192 N   0  0  0  0  0  0  0  0  0  0  0  0
    9.8271   50.7047   24.9705 O   0  0  0  0  0  0  0  0  0  0  0  0
    8.6388   48.8157   24.8979 C   0  0  0  0  0  0  0  0  0  0  0  0
    6.1937   45.8322   26.6807 O   0  0  0  0  0  0  0  0  0  0  0  0
    4.7523   47.5287   27.0627 O   0  0  0  0  0  0  0  0  0  0  0  0
   10.2820   49.9715   23.8250 C   0  0  0  0  0  0  0  0  0  0  0  0
    9.4968   48.7714   23.8159 O   0  0  0  0  0  0  0  0  0  0  0  0
    8.8125   40.1848   34.2126 O   0  0  0  0  0  0  0  0  0  0  0  0
   11.2416   40.7948   33.3707 O   0  0  0  0  0  0  0  0  0  0  0  0
   10.9179   40.6922   31.9984 C   0  0  0  0  0  0  0  0  0  0  0  0
   11.5175   39.3838   31.4423 C   0  0  0  0  0  0  0  0  0  0  0  0
   12.7508   39.0887   32.0752 O   0  0  0  0  0  0  0  0  0  0  0  0
   10.6028   38.1916   31.6658 C   0  0  0  0  0  0  0  0  0  0  0  0
   12.9384   37.6818   32.0278 C   0  0  0  0  0  0  0  0  0  0  0  0
    9.6371   38.0806   30.6470 O   0  0  0  0  0  0  0  0  0  0  0  0
   11.5780   37.0215   31.6935 C   0  0  0  0  0  0  0  0  0  0  0  0
   13.4844   37.2119   33.3242 N   0  0  0  0  0  0  0  0  0  0  0  0
   11.6095   36.3201   30.4679 O   0  0  0  0  0  0  0  0  0  0  0  0
   14.4797   36.3318   33.5730 C   0  0  0  0  0  0  0  0  0  0  0  0
   13.1135   37.6278   34.5691 C   0  0  0  0  0  0  0  0  0  0  0  0
   15.2073   35.6155   32.6742 N   0  0  0  0  0  0  0  0  0  0  0  0
   14.6754   36.2305   34.9184 C   0  0  0  0  0  0  0  0  0  0  0  0
   13.8213   37.0452   35.5785 N   0  0  0  0  0  0  0  0  0  0  0  0
   16.1640   34.7604   33.1549 C   0  0  0  0  0  0  0  0  0  0  0  0
   15.6524   35.3507   35.4132 C   0  0  0  0  0  0  0  0  0  0  0  0
   16.3794   34.6318   34.5044 N   0  0  0  0  0  0  0  0  0  0  0  0
   15.8999   35.1934   36.8091 N   0  0  0  0  0  0  0  0  0  0  0  0
    9.0121   45.4317   33.6714 H   0  0  0  0  0  0  0  0  0  0  0  0
   10.7259   46.9687   33.1212 H   0  0  0  0  0  0  0  0  0  0  0  0
   11.8906   45.7658   32.9468 H   0  0  0  0  0  0  0  0  0  0  0  0
    9.3413   43.8329   31.4762 H   0  0  0  0  0  0  0  0  0  0  0  0
   10.7229   44.8813   31.1555 H   0  0  0  0  0  0  0  0  0  0  0  0
    7.0083   44.7168   31.5811 H   0  0  0  0  0  0  0  0  0  0  0  0
   10.3469   47.1850   30.4120 H   0  0  0  0  0  0  0  0  0  0  0  0
    5.4623   46.3058   30.4995 H   0  0  0  0  0  0  0  0  0  0  0  0
    8.8172   48.7646   29.3507 H   0  0  0  0  0  0  0  0  0  0  0  0
    7.0754   50.3244   29.1206 H   0  0  0  0  0  0  0  0  0  0  0  0
    4.4572   49.9547   27.5504 H   0  0  0  0  0  0  0  0  0  0  0  0
    4.6438   50.7289   29.1670 H   0  0  0  0  0  0  0  0  0  0  0  0
    5.4276   51.4633   27.7210 H   0  0  0  0  0  0  0  0  0  0  0  0
    8.3062   51.1964   27.2558 H   0  0  0  0  0  0  0  0  0  0  0  0
    7.5552   46.9738   24.7095 H   0  0  0  0  0  0  0  0  0  0  0  0
   11.3591   49.7238   23.9304 H   0  0  0  0  0  0  0  0  0  0  0  0
   10.1004   50.5553   22.8983 H   0  0  0  0  0  0  0  0  0  0  0  0
    9.8291   40.7409   31.7627 H   0  0  0  0  0  0  0  0  0  0  0  0
   11.3952   41.5478   31.4744 H   0  0  0  0  0  0  0  0  0  0  0  0
   11.6981   39.5115   30.3500 H   0  0  0  0  0  0  0  0  0  0  0  0
   10.1117   38.2604   32.6660 H   0  0  0  0  0  0  0  0  0  0  0  0
   13.6767   37.4556   31.2267 H   0  0  0  0  0  0  0  0  0  0  0  0
    8.8962   38.6953   30.8871 H   0  0  0  0  0  0  0  0  0  0  0  0
   11.2791   36.3072   32.4922 H   0  0  0  0  0  0  0  0  0  0  0  0
   11.8828   36.9598   29.7588 H   0  0  0  0  0  0  0  0  0  0  0  0
   12.3300   38.3539   34.7446 H   0  0  0  0  0  0  0  0  0  0  0  0
   16.7561   34.1785   32.4622 H   0  0  0  0  0  0  0  0  0  0  0  0
   15.3531   35.7360   37.5140 H   0  0  0  0  0  0  0  0  0  0  0  0
   16.6347   34.5303   37.1416 H   0  0  0  0  0  0  0  0  0  0  0  0
  1  2  2  0
  1  3  1  0
  3  4  1  0
  4  5  1  0
  6  1  1  0
  7  6  1  0
  6  8  1  0
  8  9  1  0
  9 10  2  0
 11  9  1  0
 10 12  1  0
 13 11  2  0
 12 14  2  0
 14 13  1  0
 14 15  1  0
 15 16  1  0
 16 17  1  0
 16 18  1  0
 18 19  2  0
 20 18  1  0
 19 21  1  0
 22 20  2  0
 20 23  1  0
 21 24  1  0
 21 25  2  0
 25 22  1  0
 23 26  1  0
 23 27  2  0
 24 28  1  0
 25 29  1  0
 28 29  1  0
  4 30  2  0
  4 31  1  0
 32 31  1  0
 32 33  1  0
 33 34  1  0
 33 35  1  0
 34 36  1  0
 35 37  1  0
 35 38  1  0
 38 36  1  0
 36 39  1  0
 38 40  1  0
 41 39  1  0
 42 39  1  0
 43 41  2  0
 41 44  1  0
 45 42  2  0
 46 43  1  0
 44 47  2  0
 44 45  1  0
 48 46  2  0
 48 47  1  0
 47 49  1  0
  6 50  1  1
  7 51  1  0
  7 52  1  0
  8 53  1  0
  8 54  1  0
 10 55  1  0
 11 56  1  0
 12 57  1  0
 13 58  1  0
 16 59  1  1
 17 60  1  0
 17 61  1  0
 17 62  1  0
 19 63  1  0
 22 64  1  0
 28 65  1  0
 28 66  1  0
 32 67  1  0
 32 68  1  0
 33 69  1  0
 35 70  1  0
 36 71  1  0
 37 72  1  0
 38 73  1  0
 40 74  1  0
 42 75  1  0
 46 76  1  0
 49 77  1  0
 49 78  1  0
M  CHG  3   5  -1  23   1  26  -1
M  END
>  <EmbedRMS>  (420) 
0.0819882995886

$$$$

     RDKit          3D

 78 83  0  0  0  0  0  0  0  0999 V2000
   10.2834   43.7662   33.8256 C   0  0  0  0  0  0  0  0  0  0  0  0
   11.4102   43.5930   34.3752 O   0  0  0  0  0  0  0  0  0  0  0  0
    9.3637   42.7255   33.7348 O   0  0  0  0  0  0  0  0  0  0  0  0
    9.8907   41.2265   34.2933 P   0  0  0  0  0  0  0  0  0  0  0  0
   10.3743   41.4557   35.8827 O   0  0  0  0  0  0  0  0  0  0  0  0
    9.9546   45.0694   33.2035 C   0  0  1  0  0  0  0  0  0  0  0  0
   11.0274   46.0321   33.4755 N   0  0  0  0  0  0  0  0  0  0  0  0
    9.7465   44.8480   31.6875 C   0  0  0  0  0  0  0  0  0  0  0  0
    8.7923   45.8408   31.0844 C   0  0  0  0  0  0  0  0  0  0  0  0
    7.4055   45.6018   31.0994 C   0  0  0  0  0  0  0  0  0  0  0  0
    9.2823   46.9879   30.4426 C   0  0  0  0  0  0  0  0  0  0  0  0
    6.5267   46.5035   30.4845 C   0  0  0  0  0  0  0  0  0  0  0  0
    8.4033   47.8903   29.8323 C   0  0  0  0  0  0  0  0  0  0  0  0
    7.0141   47.6520   29.8461 C   0  0  0  0  0  0  0  0  0  0  0  0
    6.0890   48.5164   29.2376 O   0  0  0  0  0  0  0  0  0  0  0  0
    6.4218   49.6853   28.4851 C   0  0  2  0  0  0  0  0  0  0  0  0
    5.1600   50.5025   28.2099 C   0  0  0  0  0  0  0  0  0  0  0  0
    7.1367   49.3501   27.1839 C   0  0  0  0  0  0  0  0  0  0  0  0
    8.1098   50.2712   26.7258 C   0  0  0  0  0  0  0  0  0  0  0  0
    6.9108   48.1415   26.4359 C   0  0  0  0  0  0  0  0  0  0  0  0
    8.8345   49.9625   25.5828 C   0  0  0  0  0  0  0  0  0  0  0  0
    7.6927   47.8760   25.2891 C   0  0  0  0  0  0  0  0  0  0  0  0
    5.9216   47.1739   26.8196 N   0  0  0  0  0  0  0  0  0  0  0  0
    9.8271   50.7022   24.9693 O   0  0  0  0  0  0  0  0  0  0  0  0
    8.6378   48.8138   24.8974 C   0  0  0  0  0  0  0  0  0  0  0  0
    6.1916   45.8319   26.6814 O   0  0  0  0  0  0  0  0  0  0  0  0
    4.7511   47.5292   27.0634 O   0  0  0  0  0  0  0  0  0  0  0  0
   10.2814   49.9685   23.8239 C   0  0  0  0  0  0  0  0  0  0  0  0
    9.4955   48.7689   23.8151 O   0  0  0  0  0  0  0  0  0  0  0  0
    8.8123   40.1850   34.2127 O   0  0  0  0  0  0  0  0  0  0  0  0
   11.2407   40.7945   33.3670 O   0  0  0  0  0  0  0  0  0  0  0  0
   10.9134   40.6866   31.9954 C   0  0  0  0  0  0  0  0  0  0  0  0
   11.5167   39.3787   31.4404 C   0  0  0  0  0  0  0  0  0  0  0  0
   12.7486   39.0849   32.0734 O   0  0  0  0  0  0  0  0  0  0  0  0
   10.6039   38.1884   31.6669 C   0  0  0  0  0  0  0  0  0  0  0  0
   12.9329   37.6776   32.0284 C   0  0  0  0  0  0  0  0  0  0  0  0
    9.6374   38.0938   30.6484 O   0  0  0  0  0  0  0  0  0  0  0  0
   11.5737   37.0141   31.7055 C   0  0  0  0  0  0  0  0  0  0  0  0
   13.4853   37.2120   33.3238 N   0  0  0  0  0  0  0  0  0  0  0  0
   11.6210   36.3379   30.4683 O   0  0  0  0  0  0  0  0  0  0  0  0
   14.4804   36.3319   33.5726 C   0  0  0  0  0  0  0  0  0  0  0  0
   13.1141   37.6275   34.5689 C   0  0  0  0  0  0  0  0  0  0  0  0
   15.2076   35.6152   32.6740 N   0  0  0  0  0  0  0  0  0  0  0  0
   14.6761   36.2306   34.9181 C   0  0  0  0  0  0  0  0  0  0  0  0
   13.8218   37.0451   35.5783 N   0  0  0  0  0  0  0  0  0  0  0  0
   16.1642   34.7600   33.1548 C   0  0  0  0  0  0  0  0  0  0  0  0
   15.6527   35.3507   35.4131 C   0  0  0  0  0  0  0  0  0  0  0  0
   16.3795   34.6315   34.5043 N   0  0  0  0  0  0  0  0  0  0  0  0
   15.9000   35.1933   36.8090 N   0  0  0  0  0  0  0  0  0  0  0  0
    9.0121   45.4317   33.6714 H   0  0  0  0  0  0  0  0  0  0  0  0
   11.8906   45.7658   32.9468 H   0  0  0  0  0  0  0  0  0  0  0  0
   10.7259   46.9687   33.1212 H   0  0  0  0  0  0  0  0  0  0  0  0
    9.3413   43.8329   31.4762 H   0  0  0  0  0  0  0  0  0  0  0  0
   10.7229   44.8814   31.1555 H   0  0  0  0  0  0  0  0  0  0  0  0
    7.0083   44.7168   31.5810 H   0  0  0  0  0  0  0  0  0  0  0  0
   10.3469   47.1850   30.4120 H   0  0  0  0  0  0  0  0  0  0  0  0
    5.4623   46.3059   30.4996 H   0  0  0  0  0  0  0  0  0  0  0  0
    8.8173   48.7646   29.3506 H   0  0  0  0  0  0  0  0  0  0  0  0
    7.0760   50.3242   29.1201 H   0  0  0  0  0  0  0  0  0  0  0  0
    5.4283   51.4634   27.7208 H   0  0  0  0  0  0  0  0  0  0  0  0
    4.6445   50.7296   29.1671 H   0  0  0  0  0  0  0  0  0  0  0  0
    4.4572   49.9552   27.5506 H   0  0  0  0  0  0  0  0  0  0  0  0
    8.3069   51.1952   27.2549 H   0  0  0  0  0  0  0  0  0  0  0  0
    7.5532   46.9724   24.7096 H   0  0  0  0  0  0  0  0  0  0  0  0
   11.3583   49.7203   23.9291 H   0  0  0  0  0  0  0  0  0  0  0  0
   10.0999   50.5522   22.8971 H   0  0  0  0  0  0  0  0  0  0  0  0
    9.8225   40.7225   31.7631 H   0  0  0  0  0  0  0  0  0  0  0  0
   11.3827   41.5438   31.4669 H   0  0  0  0  0  0  0  0  0  0  0  0
   11.6978   39.5037   30.3478 H   0  0  0  0  0  0  0  0  0  0  0  0
   10.1084   38.2787   32.6626 H   0  0  0  0  0  0  0  0  0  0  0  0
   13.6638   37.4472   31.2214 H   0  0  0  0  0  0  0  0  0  0  0  0
    8.9763   37.4191   30.9532 H   0  0  0  0  0  0  0  0  0  0  0  0
   11.2821   36.3054   32.5171 H   0  0  0  0  0  0  0  0  0  0  0  0
   10.8658   35.6935   30.4652 H   0  0  0  0  0  0  0  0  0  0  0  0
   12.3293   38.3523   34.7444 H   0  0  0  0  0  0  0  0  0  0  0  0
   16.7561   34.1778   32.4621 H   0  0  0  0  0  0  0  0  0  0  0  0
   16.6345   34.5300   37.1416 H   0  0  0  0  0  0  0  0  0  0  0  0
   15.3533   35.7361   37.5138 H   0  0  0  0  0  0  0  0  0  0  0  0
  1  2  2  0
  1  3  1  0
  3  4  1  0
  4  5  1  0
  6  1  1  0
  7  6  1  0
  6  8  1  0
  8  9  1  0
  9 10  2  0
 11  9  1  0
 10 12  1  0
 13 11  2  0
 12 14  2  0
 14 13  1  0
 14 15  1  0
 15 16  1  0
 16 17  1  0
 16 18  1  0
 18 19  2  0
 20 18  1  0
 19 21  1  0
 22 20  2  0
 20 23  1  0
 21 24  1  0
 21 25  2  0
 25 22  1  0
 23 26  1  0
 23 27  2  0
 24 28  1  0
 25 29  1  0
 28 29  1  0
  4 30  2  0
  4 31  1  0
 32 31  1  0
 32 33  1  0
 33 34  1  0
 33 35  1  0
 34 36  1  0
 35 37  1  0
 35 38  1  0
 38 36  1  0
 36 39  1  0
 38 40  1  0
 41 39  1  0
 42 39  1  0
 43 41  2  0
 41 44  1  0
 45 42  2  0
 46 43  1  0
 44 47  2  0
 44 45  1  0
 48 46  2  0
 48 47  1  0
 47 49  1  0
  6 50  1  1
  7 51  1  0
  7 52  1  0
  8 53  1  0
  8 54  1  0
 10 55  1  0
 11 56  1  0
 12 57  1  0
 13 58  1  0
 16 59  1  1
 17 60  1  0
 17 61  1  0
 17 62  1  0
 19 63  1  0
 22 64  1  0
 28 65  1  0
 28 66  1  0
 32 67  1  0
 32 68  1  0
 33 69  1  0
 35 70  1  0
 36 71  1  0
 37 72  1  0
 38 73  1  0
 40 74  1  0
 42 75  1  0
 46 76  1  0
 49 77  1  0
 49 78  1  0
M  CHG  3   5  -1  23   1  26  -1
M  END
>  <EmbedRMS>  (421) 
0.0825697518073

$$$$

     RDKit          3D

 78 83  0  0  0  0  0  0  0  0999 V2000
   10.2835   43.7662   33.8255 C   0  0  0  0  0  0  0  0  0  0  0  0
   11.4102   43.5932   34.3752 O   0  0  0  0  0  0  0  0  0  0  0  0
    9.3640   42.7253   33.7346 O   0  0  0  0  0  0  0  0  0  0  0  0
    9.8908   41.2265   34.2938 P   0  0  0  0  0  0  0  0  0  0  0  0
   10.3732   41.4560   35.8835 O   0  0  0  0  0  0  0  0  0  0  0  0
    9.9545   45.0696   33.2035 C   0  0  1  0  0  0  0  0  0  0  0  0
   11.0271   46.0324   33.4756 N   0  0  0  0  0  0  0  0  0  0  0  0
    9.7463   44.8485   31.6876 C   0  0  0  0  0  0  0  0  0  0  0  0
    8.7919   45.8413   31.0844 C   0  0  0  0  0  0  0  0  0  0  0  0
    7.4039   45.6008   31.0983 C   0  0  0  0  0  0  0  0  0  0  0  0
    9.2825   46.9888   30.4411 C   0  0  0  0  0  0  0  0  0  0  0  0
    6.5246   46.5024   30.4824 C   0  0  0  0  0  0  0  0  0  0  0  0
    8.4018   47.8892   29.8302 C   0  0  0  0  0  0  0  0  0  0  0  0
    7.0202   47.6517   29.8530 C   0  0  0  0  0  0  0  0  0  0  0  0
    6.1371   48.5485   29.2487 O   0  0  0  0  0  0  0  0  0  0  0  0
    5.6554   49.7035   29.9314 C   0  0  2  0  0  0  0  0  0  0  0  0
    4.4475   50.2866   29.1955 C   0  0  0  0  0  0  0  0  0  0  0  0
    6.7607   50.7322   30.1268 C   0  0  0  0  0  0  0  0  0  0  0  0
    7.1462   51.0360   31.4562 C   0  0  0  0  0  0  0  0  0  0  0  0
    7.4100   51.4139   29.0396 C   0  0  0  0  0  0  0  0  0  0  0  0
    8.1271   51.9959   31.6639 C   0  0  0  0  0  0  0  0  0  0  0  0
    8.3908   52.3940   29.3161 C   0  0  0  0  0  0  0  0  0  0  0  0
    7.0930   51.1385   27.6671 N   0  0  0  0  0  0  0  0  0  0  0  0
    8.6495   52.4444   32.8618 O   0  0  0  0  0  0  0  0  0  0  0  0
    8.7207   52.6484   30.6396 C   0  0  0  0  0  0  0  0  0  0  0  0
    7.1630   49.8542   27.1825 O   0  0  0  0  0  0  0  0  0  0  0  0
    6.9852   52.0810   26.8556 O   0  0  0  0  0  0  0  0  0  0  0  0
    9.6357   53.4432   32.5678 C   0  0  0  0  0  0  0  0  0  0  0  0
    9.6490   53.5426   31.1372 O   0  0  0  0  0  0  0  0  0  0  0  0
    8.8127   40.1848   34.2122 O   0  0  0  0  0  0  0  0  0  0  0  0
   11.2421   40.7941   33.3697 O   0  0  0  0  0  0  0  0  0  0  0  0
   10.9187   40.6911   31.9971 C   0  0  0  0  0  0  0  0  0  0  0  0
   11.5172   39.3815   31.4408 C   0  0  0  0  0  0  0  0  0  0  0  0
   12.7493   39.0856   32.0728 O   0  0  0  0  0  0  0  0  0  0  0  0
   10.6023   38.1908   31.6665 C   0  0  0  0  0  0  0  0  0  0  0  0
   12.9319   37.6781   32.0281 C   0  0  0  0  0  0  0  0  0  0  0  0
    9.6392   38.0798   30.6452 O   0  0  0  0  0  0  0  0  0  0  0  0
   11.5715   37.0166   31.7056 C   0  0  0  0  0  0  0  0  0  0  0  0
   13.4847   37.2121   33.3235 N   0  0  0  0  0  0  0  0  0  0  0  0
   11.6187   36.3384   30.4695 O   0  0  0  0  0  0  0  0  0  0  0  0
   14.4801   36.3321   33.5724 C   0  0  0  0  0  0  0  0  0  0  0  0
   13.1137   37.6275   34.5687 C   0  0  0  0  0  0  0  0  0  0  0  0
   15.2073   35.6153   32.6738 N   0  0  0  0  0  0  0  0  0  0  0  0
   14.6759   36.2308   34.9179 C   0  0  0  0  0  0  0  0  0  0  0  0
   13.8216   37.0452   35.5781 N   0  0  0  0  0  0  0  0  0  0  0  0
   16.1640   34.7602   33.1546 C   0  0  0  0  0  0  0  0  0  0  0  0
   15.6526   35.3508   35.4129 C   0  0  0  0  0  0  0  0  0  0  0  0
   16.3794   34.6317   34.5041 N   0  0  0  0  0  0  0  0  0  0  0  0
   15.8999   35.1935   36.8088 N   0  0  0  0  0  0  0  0  0  0  0  0
    9.0119   45.4318   33.6715 H   0  0  0  0  0  0  0  0  0  0  0  0
   10.7254   46.9691   33.1215 H   0  0  0  0  0  0  0  0  0  0  0  0
   11.8903   45.7664   32.9468 H   0  0  0  0  0  0  0  0  0  0  0  0
    9.3412   43.8334   31.4761 H   0  0  0  0  0  0  0  0  0  0  0  0
   10.7226   44.8821   31.1555 H   0  0  0  0  0  0  0  0  0  0  0  0
    7.0069   44.7157   31.5799 H   0  0  0  0  0  0  0  0  0  0  0  0
   10.3469   47.1862   30.4085 H   0  0  0  0  0  0  0  0  0  0  0  0
    5.4592   46.3111   30.4990 H   0  0  0  0  0  0  0  0  0  0  0  0
    8.7950   48.7682   29.3366 H   0  0  0  0  0  0  0  0  0  0  0  0
    5.2728   49.3720   30.9237 H   0  0  0  0  0  0  0  0  0  0  0  0
    4.1133   51.2243   29.6889 H   0  0  0  0  0  0  0  0  0  0  0  0
    4.6760   50.4961   28.1321 H   0  0  0  0  0  0  0  0  0  0  0  0
    3.6094   49.5583   29.2250 H   0  0  0  0  0  0  0  0  0  0  0  0
    6.6926   50.5435   32.3070 H   0  0  0  0  0  0  0  0  0  0  0  0
    8.8941   52.9266   28.5193 H   0  0  0  0  0  0  0  0  0  0  0  0
    9.3433   54.4156   33.0167 H   0  0  0  0  0  0  0  0  0  0  0  0
   10.6312   53.1210   32.9388 H   0  0  0  0  0  0  0  0  0  0  0  0
    9.8300   40.7410   31.7613 H   0  0  0  0  0  0  0  0  0  0  0  0
   11.3968   41.5460   31.4728 H   0  0  0  0  0  0  0  0  0  0  0  0
   11.6974   39.5067   30.3481 H   0  0  0  0  0  0  0  0  0  0  0  0
   10.1076   38.2648   32.6645 H   0  0  0  0  0  0  0  0  0  0  0  0
   13.6621   37.4467   31.2209 H   0  0  0  0  0  0  0  0  0  0  0  0
    8.8975   38.6945   30.8831 H   0  0  0  0  0  0  0  0  0  0  0  0
   11.2806   36.3073   32.5170 H   0  0  0  0  0  0  0  0  0  0  0  0
   10.8492   35.7110   30.4586 H   0  0  0  0  0  0  0  0  0  0  0  0
   12.3290   38.3524   34.7444 H   0  0  0  0  0  0  0  0  0  0  0  0
   16.7559   34.1780   32.4619 H   0  0  0  0  0  0  0  0  0  0  0  0
   15.3531   35.7363   37.5137 H   0  0  0  0  0  0  0  0  0  0  0  0
   16.6344   34.5301   37.1414 H   0  0  0  0  0  0  0  0  0  0  0  0
  1  2  2  0
  1  3  1  0
  3  4  1  0
  4  5  1  0
  6  1  1  0
  7  6  1  0
  6  8  1  0
  8  9  1  0
  9 10  2  0
 11  9  1  0
 10 12  1  0
 13 11  2  0
 12 14  2  0
 14 13  1  0
 14 15  1  0
 15 16  1  0
 16 17  1  0
 16 18  1  0
 18 19  2  0
 20 18  1  0
 19 21  1  0
 22 20  2  0
 20 23  1  0
 21 24  1  0
 21 25  2  0
 25 22  1  0
 23 26  1  0
 23 27  2  0
 24 28  1  0
 25 29  1  0
 28 29  1  0
  4 30  2  0
  4 31  1  0
 32 31  1  0
 32 33  1  0
 33 34  1  0
 33 35  1  0
 34 36  1  0
 35 37  1  0
 35 38  1  0
 38 36  1  0
 36 39  1  0
 38 40  1  0
 41 39  1  0
 42 39  1  0
 43 41  2  0
 41 44  1  0
 45 42  2  0
 46 43  1  0
 44 47  2  0
 44 45  1  0
 48 46  2  0
 48 47  1  0
 47 49  1  0
  6 50  1  1
  7 51  1  0
  7 52  1  0
  8 53  1  0
  8 54  1  0
 10 55  1  0
 11 56  1  0
 12 57  1  0
 13 58  1  0
 16 59  1  1
 17 60  1  0
 17 61  1  0
 17 62  1  0
 19 63  1  0
 22 64  1  0
 28 65  1  0
 28 66  1  0
 32 67  1  0
 32 68  1  0
 33 69  1  0
 35 70  1  0
 36 71  1  0
 37 72  1  0
 38 73  1  0
 40 74  1  0
 42 75  1  0
 46 76  1  0
 49 77  1  0
 49 78  1  0
M  CHG  3   5  -1  23   1  26  -1
M  END
>  <EmbedRMS>  (422) 
0.0830262369605

$$$$

     RDKit          3D

 78 83  0  0  0  0  0  0  0  0999 V2000
   10.2834   43.7662   33.8257 C   0  0  0  0  0  0  0  0  0  0  0  0
   11.4102   43.5930   34.3752 O   0  0  0  0  0  0  0  0  0  0  0  0
    9.3635   42.7257   33.7352 O   0  0  0  0  0  0  0  0  0  0  0  0
    9.8899   41.2270   34.2947 P   0  0  0  0  0  0  0  0  0  0  0  0
   10.3732   41.4563   35.8841 O   0  0  0  0  0  0  0  0  0  0  0  0
    9.9548   45.0695   33.2035 C   0  0  1  0  0  0  0  0  0  0  0  0
   11.0274   46.0322   33.4759 N   0  0  0  0  0  0  0  0  0  0  0  0
    9.7473   44.8483   31.6874 C   0  0  0  0  0  0  0  0  0  0  0  0
    8.7927   45.8407   31.0840 C   0  0  0  0  0  0  0  0  0  0  0  0
    7.4061   45.6013   31.0996 C   0  0  0  0  0  0  0  0  0  0  0  0
    9.2817   46.9879   30.4425 C   0  0  0  0  0  0  0  0  0  0  0  0
    6.5241   46.5014   30.4858 C   0  0  0  0  0  0  0  0  0  0  0  0
    8.4003   47.8883   29.8334 C   0  0  0  0  0  0  0  0  0  0  0  0
    7.0184   47.6562   29.8437 C   0  0  0  0  0  0  0  0  0  0  0  0
    6.1870   48.5984   29.2152 O   0  0  0  0  0  0  0  0  0  0  0  0
    4.7758   48.4776   29.0178 C   0  0  2  0  0  0  0  0  0  0  0  0
    4.4758   47.4592   27.9096 C   0  0  0  0  0  0  0  0  0  0  0  0
    4.2176   49.8404   28.6488 C   0  0  0  0  0  0  0  0  0  0  0  0
    4.7283   50.4933   27.4990 C   0  0  0  0  0  0  0  0  0  0  0  0
    3.1676   50.4676   29.3985 C   0  0  0  0  0  0  0  0  0  0  0  0
    4.1620   51.7013   27.1136 C   0  0  0  0  0  0  0  0  0  0  0  0
    2.6188   51.6899   28.9484 C   0  0  0  0  0  0  0  0  0  0  0  0
    2.6744   49.9014   30.6206 N   0  0  0  0  0  0  0  0  0  0  0  0
    4.4895   52.4977   26.0331 O   0  0  0  0  0  0  0  0  0  0  0  0
    3.1477   52.2711   27.8040 C   0  0  0  0  0  0  0  0  0  0  0  0
    3.5464   49.6429   31.6529 O   0  0  0  0  0  0  0  0  0  0  0  0
    1.4477   49.8953   30.8515 O   0  0  0  0  0  0  0  0  0  0  0  0
    3.6238   53.6410   26.0478 C   0  0  0  0  0  0  0  0  0  0  0  0
    2.7833   53.4566   27.1951 O   0  0  0  0  0  0  0  0  0  0  0  0
    8.8120   40.1851   34.2133 O   0  0  0  0  0  0  0  0  0  0  0  0
   11.2403   40.7947   33.3700 O   0  0  0  0  0  0  0  0  0  0  0  0
   10.9145   40.6914   31.9982 C   0  0  0  0  0  0  0  0  0  0  0  0
   11.5270   39.3912   31.4385 C   0  0  0  0  0  0  0  0  0  0  0  0
   12.7520   39.0911   32.0836 O   0  0  0  0  0  0  0  0  0  0  0  0
   10.6113   38.1932   31.6451 C   0  0  0  0  0  0  0  0  0  0  0  0
   12.9413   37.6838   32.0297 C   0  0  0  0  0  0  0  0  0  0  0  0
    9.6064   38.0878   30.6599 O   0  0  0  0  0  0  0  0  0  0  0  0
   11.5822   37.0198   31.6877 C   0  0  0  0  0  0  0  0  0  0  0  0
   13.4840   37.2104   33.3254 N   0  0  0  0  0  0  0  0  0  0  0  0
   11.6179   36.3072   30.4690 O   0  0  0  0  0  0  0  0  0  0  0  0
   14.4797   36.3309   33.5738 C   0  0  0  0  0  0  0  0  0  0  0  0
   13.1136   37.6269   34.5702 C   0  0  0  0  0  0  0  0  0  0  0  0
   15.2074   35.6152   32.6747 N   0  0  0  0  0  0  0  0  0  0  0  0
   14.6756   36.2298   34.9190 C   0  0  0  0  0  0  0  0  0  0  0  0
   13.8217   37.0445   35.5793 N   0  0  0  0  0  0  0  0  0  0  0  0
   16.1643   34.7603   33.1551 C   0  0  0  0  0  0  0  0  0  0  0  0
   15.6528   35.3503   35.4136 C   0  0  0  0  0  0  0  0  0  0  0  0
   16.3798   34.6316   34.5046 N   0  0  0  0  0  0  0  0  0  0  0  0
   15.9004   35.1930   36.8094 N   0  0  0  0  0  0  0  0  0  0  0  0
    9.0121   45.4318   33.6710 H   0  0  0  0  0  0  0  0  0  0  0  0
   10.7261   46.9688   33.1214 H   0  0  0  0  0  0  0  0  0  0  0  0
   11.8908   45.7658   32.9476 H   0  0  0  0  0  0  0  0  0  0  0  0
    9.3427   43.8330   31.4758 H   0  0  0  0  0  0  0  0  0  0  0  0
   10.7238   44.8823   31.1557 H   0  0  0  0  0  0  0  0  0  0  0  0
    7.0106   44.7169   31.5840 H   0  0  0  0  0  0  0  0  0  0  0  0
   10.3459   47.1867   30.4113 H   0  0  0  0  0  0  0  0  0  0  0  0
    5.4668   46.2854   30.5250 H   0  0  0  0  0  0  0  0  0  0  0  0
    8.7942   48.7707   29.3449 H   0  0  0  0  0  0  0  0  0  0  0  0
    4.3013   48.1074   29.9448 H   0  0  0  0  0  0  0  0  0  0  0  0
    4.7947   46.4429   28.2186 H   0  0  0  0  0  0  0  0  0  0  0  0
    3.3844   47.4303   27.7033 H   0  0  0  0  0  0  0  0  0  0  0  0
    5.0148   47.7187   26.9745 H   0  0  0  0  0  0  0  0  0  0  0  0
    5.5340   50.0664   26.9156 H   0  0  0  0  0  0  0  0  0  0  0  0
    1.8231   52.1834   29.4918 H   0  0  0  0  0  0  0  0  0  0  0  0
    4.2190   54.5721   26.1545 H   0  0  0  0  0  0  0  0  0  0  0  0
    3.0096   53.6696   25.1234 H   0  0  0  0  0  0  0  0  0  0  0  0
    9.8235   40.7201   31.7654 H   0  0  0  0  0  0  0  0  0  0  0  0
   11.3777   41.5549   31.4744 H   0  0  0  0  0  0  0  0  0  0  0  0
   11.7312   39.5362   30.3532 H   0  0  0  0  0  0  0  0  0  0  0  0
   10.1202   38.2697   32.6410 H   0  0  0  0  0  0  0  0  0  0  0  0
   13.6850   37.4639   31.2321 H   0  0  0  0  0  0  0  0  0  0  0  0
   10.0250   38.1793   29.7654 H   0  0  0  0  0  0  0  0  0  0  0  0
   11.2757   36.3135   32.4907 H   0  0  0  0  0  0  0  0  0  0  0  0
   11.9838   36.9111   29.7708 H   0  0  0  0  0  0  0  0  0  0  0  0
   12.3307   38.3536   34.7458 H   0  0  0  0  0  0  0  0  0  0  0  0
   16.7566   34.1787   32.4623 H   0  0  0  0  0  0  0  0  0  0  0  0
   16.6353   34.5301   37.1419 H   0  0  0  0  0  0  0  0  0  0  0  0
   15.3535   35.7355   37.5144 H   0  0  0  0  0  0  0  0  0  0  0  0
  1  2  2  0
  1  3  1  0
  3  4  1  0
  4  5  1  0
  6  1  1  0
  7  6  1  0
  6  8  1  0
  8  9  1  0
  9 10  2  0
 11  9  1  0
 10 12  1  0
 13 11  2  0
 12 14  2  0
 14 13  1  0
 14 15  1  0
 15 16  1  0
 16 17  1  0
 16 18  1  0
 18 19  2  0
 20 18  1  0
 19 21  1  0
 22 20  2  0
 20 23  1  0
 21 24  1  0
 21 25  2  0
 25 22  1  0
 23 26  1  0
 23 27  2  0
 24 28  1  0
 25 29  1  0
 28 29  1  0
  4 30  2  0
  4 31  1  0
 32 31  1  0
 32 33  1  0
 33 34  1  0
 33 35  1  0
 34 36  1  0
 35 37  1  0
 35 38  1  0
 38 36  1  0
 36 39  1  0
 38 40  1  0
 41 39  1  0
 42 39  1  0
 43 41  2  0
 41 44  1  0
 45 42  2  0
 46 43  1  0
 44 47  2  0
 44 45  1  0
 48 46  2  0
 48 47  1  0
 47 49  1  0
  6 50  1  1
  7 51  1  0
  7 52  1  0
  8 53  1  0
  8 54  1  0
 10 55  1  0
 11 56  1  0
 12 57  1  0
 13 58  1  0
 16 59  1  1
 17 60  1  0
 17 61  1  0
 17 62  1  0
 19 63  1  0
 22 64  1  0
 28 65  1  0
 28 66  1  0
 32 67  1  0
 32 68  1  0
 33 69  1  0
 35 70  1  0
 36 71  1  0
 37 72  1  0
 38 73  1  0
 40 74  1  0
 42 75  1  0
 46 76  1  0
 49 77  1  0
 49 78  1  0
M  CHG  3   5  -1  23   1  26  -1
M  END
>  <EmbedRMS>  (423) 
0.0808169540382

$$$$

     RDKit          3D

 78 83  0  0  0  0  0  0  0  0999 V2000
   10.2804   43.7664   33.8249 C   0  0  0  0  0  0  0  0  0  0  0  0
   11.4111   43.5918   34.3666 O   0  0  0  0  0  0  0  0  0  0  0  0
    9.3619   42.7249   33.7345 O   0  0  0  0  0  0  0  0  0  0  0  0
    9.8899   41.2266   34.2940 P   0  0  0  0  0  0  0  0  0  0  0  0
   10.3734   41.4567   35.8833 O   0  0  0  0  0  0  0  0  0  0  0  0
    9.9460   45.0736   33.2111 C   0  0  1  0  0  0  0  0  0  0  0  0
   11.0267   46.0292   33.4708 N   0  0  0  0  0  0  0  0  0  0  0  0
    9.7541   44.8540   31.6947 C   0  0  0  0  0  0  0  0  0  0  0  0
    8.7959   45.8409   31.0844 C   0  0  0  0  0  0  0  0  0  0  0  0
    7.4092   45.6003   31.1013 C   0  0  0  0  0  0  0  0  0  0  0  0
    9.2824   46.9878   30.4400 C   0  0  0  0  0  0  0  0  0  0  0  0
    6.5256   46.4993   30.4873 C   0  0  0  0  0  0  0  0  0  0  0  0
    8.3996   47.8875   29.8321 C   0  0  0  0  0  0  0  0  0  0  0  0
    7.0180   47.6544   29.8443 C   0  0  0  0  0  0  0  0  0  0  0  0
    6.1852   48.5961   29.2168 O   0  0  0  0  0  0  0  0  0  0  0  0
    4.7736   48.4750   29.0221 C   0  0  2  0  0  0  0  0  0  0  0  0
    4.4719   47.4558   27.9151 C   0  0  0  0  0  0  0  0  0  0  0  0
    4.2149   49.8376   28.6517 C   0  0  0  0  0  0  0  0  0  0  0  0
    4.7298   50.4901   27.5034 C   0  0  0  0  0  0  0  0  0  0  0  0
    3.1607   50.4655   29.3965 C   0  0  0  0  0  0  0  0  0  0  0  0
    4.1637   51.6970   27.1143 C   0  0  0  0  0  0  0  0  0  0  0  0
    2.6118   51.6851   28.9416 C   0  0  0  0  0  0  0  0  0  0  0  0
    2.6545   49.9018   30.6142 N   0  0  0  0  0  0  0  0  0  0  0  0
    4.4951   52.4925   26.0343 O   0  0  0  0  0  0  0  0  0  0  0  0
    3.1454   52.2660   27.7992 C   0  0  0  0  0  0  0  0  0  0  0  0
    1.3010   49.9201   30.8593 O   0  0  0  0  0  0  0  0  0  0  0  0
    3.4343   49.6634   31.5593 O   0  0  0  0  0  0  0  0  0  0  0  0
    3.6276   53.6346   26.0436 C   0  0  0  0  0  0  0  0  0  0  0  0
    2.7819   53.4501   27.1871 O   0  0  0  0  0  0  0  0  0  0  0  0
    8.8123   40.1844   34.2133 O   0  0  0  0  0  0  0  0  0  0  0  0
   11.2405   40.7942   33.3692 O   0  0  0  0  0  0  0  0  0  0  0  0
   10.9150   40.6905   31.9972 C   0  0  0  0  0  0  0  0  0  0  0  0
   11.5252   39.3886   31.4375 C   0  0  0  0  0  0  0  0  0  0  0  0
   12.7499   39.0874   32.0799 O   0  0  0  0  0  0  0  0  0  0  0  0
   10.6092   38.1926   31.6470 C   0  0  0  0  0  0  0  0  0  0  0  0
   12.9332   37.6793   32.0294 C   0  0  0  0  0  0  0  0  0  0  0  0
    9.6122   38.0894   30.6542 O   0  0  0  0  0  0  0  0  0  0  0  0
   11.5743   37.0145   31.7024 C   0  0  0  0  0  0  0  0  0  0  0  0
   13.4844   37.2108   33.3241 N   0  0  0  0  0  0  0  0  0  0  0  0
   11.6297   36.3239   30.4740 O   0  0  0  0  0  0  0  0  0  0  0  0
   14.4802   36.3313   33.5727 C   0  0  0  0  0  0  0  0  0  0  0  0
   13.1138   37.6266   34.5692 C   0  0  0  0  0  0  0  0  0  0  0  0
   15.2075   35.6149   32.6739 N   0  0  0  0  0  0  0  0  0  0  0  0
   14.6761   36.2303   34.9181 C   0  0  0  0  0  0  0  0  0  0  0  0
   13.8220   37.0447   35.5785 N   0  0  0  0  0  0  0  0  0  0  0  0
   16.1643   34.7600   33.1547 C   0  0  0  0  0  0  0  0  0  0  0  0
   15.6529   35.3505   35.4130 C   0  0  0  0  0  0  0  0  0  0  0  0
   16.3798   34.6315   34.5042 N   0  0  0  0  0  0  0  0  0  0  0  0
   15.9003   35.1932   36.8090 N   0  0  0  0  0  0  0  0  0  0  0  0
    8.9995   45.4381   33.6720 H   0  0  0  0  0  0  0  0  0  0  0  0
   10.7764   46.9369   33.0159 H   0  0  0  0  0  0  0  0  0  0  0  0
   11.0501   46.2277   34.4982 H   0  0  0  0  0  0  0  0  0  0  0  0
   10.7413   44.9078   31.1835 H   0  0  0  0  0  0  0  0  0  0  0  0
    9.3647   43.8353   31.4710 H   0  0  0  0  0  0  0  0  0  0  0  0
    7.0152   44.7164   31.5878 H   0  0  0  0  0  0  0  0  0  0  0  0
   10.3462   47.1880   30.4062 H   0  0  0  0  0  0  0  0  0  0  0  0
    5.4685   46.2825   30.5280 H   0  0  0  0  0  0  0  0  0  0  0  0
    8.7922   48.7698   29.3425 H   0  0  0  0  0  0  0  0  0  0  0  0
    4.3016   48.1048   29.9502 H   0  0  0  0  0  0  0  0  0  0  0  0
    5.0083   47.7154   26.9785 H   0  0  0  0  0  0  0  0  0  0  0  0
    4.7924   46.4399   28.2236 H   0  0  0  0  0  0  0  0  0  0  0  0
    3.3800   47.4258   27.7115 H   0  0  0  0  0  0  0  0  0  0  0  0
    5.5382   50.0634   26.9237 H   0  0  0  0  0  0  0  0  0  0  0  0
    1.8122   52.1777   29.4800 H   0  0  0  0  0  0  0  0  0  0  0  0
    3.0178   53.6611   25.1163 H   0  0  0  0  0  0  0  0  0  0  0  0
    4.2209   54.5666   26.1521 H   0  0  0  0  0  0  0  0  0  0  0  0
    9.8241   40.7215   31.7641 H   0  0  0  0  0  0  0  0  0  0  0  0
   11.3800   41.5528   31.4730 H   0  0  0  0  0  0  0  0  0  0  0  0
   11.7266   39.5310   30.3513 H   0  0  0  0  0  0  0  0  0  0  0  0
   10.1110   38.2747   32.6387 H   0  0  0  0  0  0  0  0  0  0  0  0
   13.6652   37.4520   31.2226 H   0  0  0  0  0  0  0  0  0  0  0  0
   10.0511   38.1143   29.7645 H   0  0  0  0  0  0  0  0  0  0  0  0
   11.2762   36.3141   32.5189 H   0  0  0  0  0  0  0  0  0  0  0  0
   10.8593   35.6978   30.4640 H   0  0  0  0  0  0  0  0  0  0  0  0
   12.3295   38.3518   34.7450 H   0  0  0  0  0  0  0  0  0  0  0  0
   16.7564   34.1780   32.4620 H   0  0  0  0  0  0  0  0  0  0  0  0
   16.6349   34.5300   37.1415 H   0  0  0  0  0  0  0  0  0  0  0  0
   15.3534   35.7359   37.5138 H   0  0  0  0  0  0  0  0  0  0  0  0
  1  2  2  0
  1  3  1  0
  3  4  1  0
  4  5  1  0
  6  1  1  0
  7  6  1  0
  6  8  1  0
  8  9  1  0
  9 10  2  0
 11  9  1  0
 10 12  1  0
 13 11  2  0
 12 14  2  0
 14 13  1  0
 14 15  1  0
 15 16  1  0
 16 17  1  0
 16 18  1  0
 18 19  2  0
 20 18  1  0
 19 21  1  0
 22 20  2  0
 20 23  1  0
 21 24  1  0
 21 25  2  0
 25 22  1  0
 23 26  1  0
 23 27  2  0
 24 28  1  0
 25 29  1  0
 28 29  1  0
  4 30  2  0
  4 31  1  0
 32 31  1  0
 32 33  1  0
 33 34  1  0
 33 35  1  0
 34 36  1  0
 35 37  1  0
 35 38  1  0
 38 36  1  0
 36 39  1  0
 38 40  1  0
 41 39  1  0
 42 39  1  0
 43 41  2  0
 41 44  1  0
 45 42  2  0
 46 43  1  0
 44 47  2  0
 44 45  1  0
 48 46  2  0
 48 47  1  0
 47 49  1  0
  6 50  1  1
  7 51  1  0
  7 52  1  0
  8 53  1  0
  8 54  1  0
 10 55  1  0
 11 56  1  0
 12 57  1  0
 13 58  1  0
 16 59  1  1
 17 60  1  0
 17 61  1  0
 17 62  1  0
 19 63  1  0
 22 64  1  0
 28 65  1  0
 28 66  1  0
 32 67  1  0
 32 68  1  0
 33 69  1  0
 35 70  1  0
 36 71  1  0
 37 72  1  0
 38 73  1  0
 40 74  1  0
 42 75  1  0
 46 76  1  0
 49 77  1  0
 49 78  1  0
M  CHG  3   5  -1  23   1  26  -1
M  END
>  <EmbedRMS>  (424) 
0.0816262923938

$$$$

     RDKit          3D

 78 83  0  0  0  0  0  0  0  0999 V2000
   10.2805   43.7663   33.8249 C   0  0  0  0  0  0  0  0  0  0  0  0
   11.4111   43.5919   34.3667 O   0  0  0  0  0  0  0  0  0  0  0  0
    9.3622   42.7247   33.7342 O   0  0  0  0  0  0  0  0  0  0  0  0
    9.8904   41.2264   34.2936 P   0  0  0  0  0  0  0  0  0  0  0  0
   10.3731   41.4564   35.8832 O   0  0  0  0  0  0  0  0  0  0  0  0
    9.9460   45.0735   33.2110 C   0  0  1  0  0  0  0  0  0  0  0  0
   11.0266   46.0292   33.4708 N   0  0  0  0  0  0  0  0  0  0  0  0
    9.7541   44.8540   31.6947 C   0  0  0  0  0  0  0  0  0  0  0  0
    8.7959   45.8408   31.0843 C   0  0  0  0  0  0  0  0  0  0  0  0
    7.4092   45.6003   31.1013 C   0  0  0  0  0  0  0  0  0  0  0  0
    9.2824   46.9878   30.4400 C   0  0  0  0  0  0  0  0  0  0  0  0
    6.5255   46.4995   30.4875 C   0  0  0  0  0  0  0  0  0  0  0  0
    8.3996   47.8876   29.8324 C   0  0  0  0  0  0  0  0  0  0  0  0
    7.0180   47.6542   29.8441 C   0  0  0  0  0  0  0  0  0  0  0  0
    6.1856   48.5959   29.2165 O   0  0  0  0  0  0  0  0  0  0  0  0
    4.7816   48.4616   28.9893 C   0  0  2  0  0  0  0  0  0  0  0  0
    4.4916   47.4211   27.8985 C   0  0  0  0  0  0  0  0  0  0  0  0
    4.1892   49.8163   28.6312 C   0  0  0  0  0  0  0  0  0  0  0  0
    3.1868   50.3450   29.4832 C   0  0  0  0  0  0  0  0  0  0  0  0
    4.5641   50.5571   27.4554 C   0  0  0  0  0  0  0  0  0  0  0  0
    2.5879   51.5504   29.1424 C   0  0  0  0  0  0  0  0  0  0  0  0
    3.9057   51.7704   27.1538 C   0  0  0  0  0  0  0  0  0  0  0  0
    5.5806   50.0991   26.5520 N   0  0  0  0  0  0  0  0  0  0  0  0
    1.5973   52.2379   29.8171 O   0  0  0  0  0  0  0  0  0  0  0  0
    2.9297   52.2310   28.0257 C   0  0  0  0  0  0  0  0  0  0  0  0
    5.3829   50.2140   25.1954 O   0  0  0  0  0  0  0  0  0  0  0  0
    6.7270   49.8436   26.9715 O   0  0  0  0  0  0  0  0  0  0  0  0
    1.3002   53.4279   29.0739 C   0  0  0  0  0  0  0  0  0  0  0  0
    2.1735   53.3840   27.9373 O   0  0  0  0  0  0  0  0  0  0  0  0
    8.8129   40.1841   34.2124 O   0  0  0  0  0  0  0  0  0  0  0  0
   11.2419   40.7944   33.3695 O   0  0  0  0  0  0  0  0  0  0  0  0
   10.9186   40.6911   31.9969 C   0  0  0  0  0  0  0  0  0  0  0  0
   11.5172   39.3814   31.4407 C   0  0  0  0  0  0  0  0  0  0  0  0
   12.7492   39.0856   32.0729 O   0  0  0  0  0  0  0  0  0  0  0  0
   10.6023   38.1908   31.6665 C   0  0  0  0  0  0  0  0  0  0  0  0
   12.9319   37.6781   32.0281 C   0  0  0  0  0  0  0  0  0  0  0  0
    9.6392   38.0797   30.6452 O   0  0  0  0  0  0  0  0  0  0  0  0
   11.5715   37.0165   31.7056 C   0  0  0  0  0  0  0  0  0  0  0  0
   13.4847   37.2121   33.3235 N   0  0  0  0  0  0  0  0  0  0  0  0
   11.6187   36.3383   30.4695 O   0  0  0  0  0  0  0  0  0  0  0  0
   14.4801   36.3321   33.5724 C   0  0  0  0  0  0  0  0  0  0  0  0
   13.1137   37.6276   34.5687 C   0  0  0  0  0  0  0  0  0  0  0  0
   15.2073   35.6153   32.6738 N   0  0  0  0  0  0  0  0  0  0  0  0
   14.6759   36.2308   34.9179 C   0  0  0  0  0  0  0  0  0  0  0  0
   13.8216   37.0452   35.5781 N   0  0  0  0  0  0  0  0  0  0  0  0
   16.1640   34.7601   33.1546 C   0  0  0  0  0  0  0  0  0  0  0  0
   15.6526   35.3508   35.4129 C   0  0  0  0  0  0  0  0  0  0  0  0
   16.3794   34.6317   34.5041 N   0  0  0  0  0  0  0  0  0  0  0  0
   15.8999   35.1935   36.8088 N   0  0  0  0  0  0  0  0  0  0  0  0
    8.9995   45.4380   33.6719 H   0  0  0  0  0  0  0  0  0  0  0  0
   10.7764   46.9369   33.0158 H   0  0  0  0  0  0  0  0  0  0  0  0
   11.0501   46.2277   34.4982 H   0  0  0  0  0  0  0  0  0  0  0  0
   10.7414   44.9077   31.1835 H   0  0  0  0  0  0  0  0  0  0  0  0
    9.3647   43.8352   31.4709 H   0  0  0  0  0  0  0  0  0  0  0  0
    7.0151   44.7168   31.5885 H   0  0  0  0  0  0  0  0  0  0  0  0
   10.3462   47.1881   30.4062 H   0  0  0  0  0  0  0  0  0  0  0  0
    5.4682   46.2845   30.5307 H   0  0  0  0  0  0  0  0  0  0  0  0
    8.7920   48.7699   29.3426 H   0  0  0  0  0  0  0  0  0  0  0  0
    4.3037   48.1046   29.9272 H   0  0  0  0  0  0  0  0  0  0  0  0
    5.0716   47.6262   26.9771 H   0  0  0  0  0  0  0  0  0  0  0  0
    3.4083   47.4174   27.6522 H   0  0  0  0  0  0  0  0  0  0  0  0
    4.7653   46.4056   28.2499 H   0  0  0  0  0  0  0  0  0  0  0  0
    2.8700   49.8280   30.3801 H   0  0  0  0  0  0  0  0  0  0  0  0
    4.1617   52.3450   26.2729 H   0  0  0  0  0  0  0  0  0  0  0  0
    0.2404   53.4198   28.7435 H   0  0  0  0  0  0  0  0  0  0  0  0
    1.5151   54.3278   29.6876 H   0  0  0  0  0  0  0  0  0  0  0  0
    9.8299   40.7409   31.7611 H   0  0  0  0  0  0  0  0  0  0  0  0
   11.3967   41.5459   31.4726 H   0  0  0  0  0  0  0  0  0  0  0  0
   11.6975   39.5066   30.3481 H   0  0  0  0  0  0  0  0  0  0  0  0
   10.1077   38.2648   32.6645 H   0  0  0  0  0  0  0  0  0  0  0  0
   13.6621   37.4468   31.2209 H   0  0  0  0  0  0  0  0  0  0  0  0
    8.8974   38.6942   30.8832 H   0  0  0  0  0  0  0  0  0  0  0  0
   11.2806   36.3073   32.5170 H   0  0  0  0  0  0  0  0  0  0  0  0
   10.8492   35.7110   30.4586 H   0  0  0  0  0  0  0  0  0  0  0  0
   12.3290   38.3524   34.7444 H   0  0  0  0  0  0  0  0  0  0  0  0
   16.7559   34.1780   32.4619 H   0  0  0  0  0  0  0  0  0  0  0  0
   16.6344   34.5301   37.1414 H   0  0  0  0  0  0  0  0  0  0  0  0
   15.3531   35.7362   37.5137 H   0  0  0  0  0  0  0  0  0  0  0  0
  1  2  2  0
  1  3  1  0
  3  4  1  0
  4  5  1  0
  6  1  1  0
  7  6  1  0
  6  8  1  0
  8  9  1  0
  9 10  2  0
 11  9  1  0
 10 12  1  0
 13 11  2  0
 12 14  2  0
 14 13  1  0
 14 15  1  0
 15 16  1  0
 16 17  1  0
 16 18  1  0
 18 19  2  0
 20 18  1  0
 19 21  1  0
 22 20  2  0
 20 23  1  0
 21 24  1  0
 21 25  2  0
 25 22  1  0
 23 26  1  0
 23 27  2  0
 24 28  1  0
 25 29  1  0
 28 29  1  0
  4 30  2  0
  4 31  1  0
 32 31  1  0
 32 33  1  0
 33 34  1  0
 33 35  1  0
 34 36  1  0
 35 37  1  0
 35 38  1  0
 38 36  1  0
 36 39  1  0
 38 40  1  0
 41 39  1  0
 42 39  1  0
 43 41  2  0
 41 44  1  0
 45 42  2  0
 46 43  1  0
 44 47  2  0
 44 45  1  0
 48 46  2  0
 48 47  1  0
 47 49  1  0
  6 50  1  1
  7 51  1  0
  7 52  1  0
  8 53  1  0
  8 54  1  0
 10 55  1  0
 11 56  1  0
 12 57  1  0
 13 58  1  0
 16 59  1  1
 17 60  1  0
 17 61  1  0
 17 62  1  0
 19 63  1  0
 22 64  1  0
 28 65  1  0
 28 66  1  0
 32 67  1  0
 32 68  1  0
 33 69  1  0
 35 70  1  0
 36 71  1  0
 37 72  1  0
 38 73  1  0
 40 74  1  0
 42 75  1  0
 46 76  1  0
 49 77  1  0
 49 78  1  0
M  CHG  3   5  -1  23   1  26  -1
M  END
>  <EmbedRMS>  (425) 
0.0827586193273

$$$$

     RDKit          3D

 78 83  0  0  0  0  0  0  0  0999 V2000
   10.2804   43.7665   33.8251 C   0  0  0  0  0  0  0  0  0  0  0  0
   11.4111   43.5920   34.3667 O   0  0  0  0  0  0  0  0  0  0  0  0
    9.3619   42.7249   33.7348 O   0  0  0  0  0  0  0  0  0  0  0  0
    9.8900   41.2267   34.2944 P   0  0  0  0  0  0  0  0  0  0  0  0
   10.3728   41.4567   35.8839 O   0  0  0  0  0  0  0  0  0  0  0  0
    9.9458   45.0736   33.2112 C   0  0  1  0  0  0  0  0  0  0  0  0
   11.0265   46.0293   33.4705 N   0  0  0  0  0  0  0  0  0  0  0  0
    9.7536   44.8536   31.6950 C   0  0  0  0  0  0  0  0  0  0  0  0
    8.7956   45.8405   31.0846 C   0  0  0  0  0  0  0  0  0  0  0  0
    7.4093   45.6002   31.1004 C   0  0  0  0  0  0  0  0  0  0  0  0
    9.2824   46.9869   30.4400 C   0  0  0  0  0  0  0  0  0  0  0  0
    6.5295   46.5012   30.4854 C   0  0  0  0  0  0  0  0  0  0  0  0
    8.4023   47.8886   29.8307 C   0  0  0  0  0  0  0  0  0  0  0  0
    7.0124   47.6529   29.8477 C   0  0  0  0  0  0  0  0  0  0  0  0
    6.0698   48.5201   29.2649 O   0  0  0  0  0  0  0  0  0  0  0  0
    6.3219   49.7399   28.5542 C   0  0  2  0  0  0  0  0  0  0  0  0
    6.9301   49.4311   27.1768 C   0  0  0  0  0  0  0  0  0  0  0  0
    7.0712   50.7538   29.4210 C   0  0  0  0  0  0  0  0  0  0  0  0
    8.2315   51.4147   28.9322 C   0  0  0  0  0  0  0  0  0  0  0  0
    6.6288   51.0364   30.7606 C   0  0  0  0  0  0  0  0  0  0  0  0
    8.9177   52.2732   29.7803 C   0  0  0  0  0  0  0  0  0  0  0  0
    7.3806   51.9086   31.5796 C   0  0  0  0  0  0  0  0  0  0  0  0
    5.4388   50.4445   31.3092 N   0  0  0  0  0  0  0  0  0  0  0  0
   10.0645   52.9991   29.5210 O   0  0  0  0  0  0  0  0  0  0  0  0
    8.5138   52.5056   31.0485 C   0  0  0  0  0  0  0  0  0  0  0  0
    5.3856   50.1299   32.6476 O   0  0  0  0  0  0  0  0  0  0  0  0
    4.3881   50.3931   30.6380 O   0  0  0  0  0  0  0  0  0  0  0  0
   10.4001   53.7344   30.7055 C   0  0  0  0  0  0  0  0  0  0  0  0
    9.3834   53.3905   31.6565 O   0  0  0  0  0  0  0  0  0  0  0  0
    8.8127   40.1842   34.2129 O   0  0  0  0  0  0  0  0  0  0  0  0
   11.2415   40.7951   33.3705 O   0  0  0  0  0  0  0  0  0  0  0  0
   10.9178   40.6922   31.9983 C   0  0  0  0  0  0  0  0  0  0  0  0
   11.5175   39.3837   31.4423 C   0  0  0  0  0  0  0  0  0  0  0  0
   12.7507   39.0887   32.0753 O   0  0  0  0  0  0  0  0  0  0  0  0
   10.6027   38.1916   31.6659 C   0  0  0  0  0  0  0  0  0  0  0  0
   12.9384   37.6819   32.0278 C   0  0  0  0  0  0  0  0  0  0  0  0
    9.6371   38.0805   30.6470 O   0  0  0  0  0  0  0  0  0  0  0  0
   11.5780   37.0215   31.6935 C   0  0  0  0  0  0  0  0  0  0  0  0
   13.4844   37.2119   33.3242 N   0  0  0  0  0  0  0  0  0  0  0  0
   11.6095   36.3201   30.4679 O   0  0  0  0  0  0  0  0  0  0  0  0
   14.4797   36.3318   33.5730 C   0  0  0  0  0  0  0  0  0  0  0  0
   13.1135   37.6278   34.5691 C   0  0  0  0  0  0  0  0  0  0  0  0
   15.2073   35.6155   32.6742 N   0  0  0  0  0  0  0  0  0  0  0  0
   14.6754   36.2305   34.9184 C   0  0  0  0  0  0  0  0  0  0  0  0
   13.8213   37.0452   35.5785 N   0  0  0  0  0  0  0  0  0  0  0  0
   16.1640   34.7604   33.1549 C   0  0  0  0  0  0  0  0  0  0  0  0
   15.6525   35.3507   35.4132 C   0  0  0  0  0  0  0  0  0  0  0  0
   16.3794   34.6318   34.5044 N   0  0  0  0  0  0  0  0  0  0  0  0
   15.9000   35.1934   36.8091 N   0  0  0  0  0  0  0  0  0  0  0  0
    8.9994   45.4382   33.6722 H   0  0  0  0  0  0  0  0  0  0  0  0
   10.7760   46.9369   33.0156 H   0  0  0  0  0  0  0  0  0  0  0  0
   11.0502   46.2280   34.4979 H   0  0  0  0  0  0  0  0  0  0  0  0
   10.7407   44.9067   31.1836 H   0  0  0  0  0  0  0  0  0  0  0  0
    9.3638   43.8349   31.4717 H   0  0  0  0  0  0  0  0  0  0  0  0
    7.0133   44.7163   31.5850 H   0  0  0  0  0  0  0  0  0  0  0  0
   10.3466   47.1859   30.4078 H   0  0  0  0  0  0  0  0  0  0  0  0
    5.4650   46.3048   30.5082 H   0  0  0  0  0  0  0  0  0  0  0  0
    8.8233   48.7584   29.3552 H   0  0  0  0  0  0  0  0  0  0  0  0
    5.3323   50.1924   28.3331 H   0  0  0  0  0  0  0  0  0  0  0  0
    6.9432   50.3464   26.5476 H   0  0  0  0  0  0  0  0  0  0  0  0
    7.9588   49.0277   27.2591 H   0  0  0  0  0  0  0  0  0  0  0  0
    6.3044   48.6742   26.6581 H   0  0  0  0  0  0  0  0  0  0  0  0
    8.6145   51.2612   27.9341 H   0  0  0  0  0  0  0  0  0  0  0  0
    7.0771   52.1310   32.5945 H   0  0  0  0  0  0  0  0  0  0  0  0
   11.3973   53.4231   31.0813 H   0  0  0  0  0  0  0  0  0  0  0  0
   10.3790   54.8250   30.4995 H   0  0  0  0  0  0  0  0  0  0  0  0
   11.3950   41.5477   31.4741 H   0  0  0  0  0  0  0  0  0  0  0  0
    9.8290   40.7408   31.7625 H   0  0  0  0  0  0  0  0  0  0  0  0
   11.6982   39.5114   30.3500 H   0  0  0  0  0  0  0  0  0  0  0  0
   10.1117   38.2604   32.6661 H   0  0  0  0  0  0  0  0  0  0  0  0
   13.6767   37.4557   31.2267 H   0  0  0  0  0  0  0  0  0  0  0  0
    8.8960   38.6950   30.8873 H   0  0  0  0  0  0  0  0  0  0  0  0
   11.2791   36.3072   32.4922 H   0  0  0  0  0  0  0  0  0  0  0  0
   11.8828   36.9598   29.7589 H   0  0  0  0  0  0  0  0  0  0  0  0
   12.3300   38.3538   34.7446 H   0  0  0  0  0  0  0  0  0  0  0  0
   16.7562   34.1785   32.4622 H   0  0  0  0  0  0  0  0  0  0  0  0
   16.6347   34.5303   37.1416 H   0  0  0  0  0  0  0  0  0  0  0  0
   15.3531   35.7360   37.5140 H   0  0  0  0  0  0  0  0  0  0  0  0
  1  2  2  0
  1  3  1  0
  3  4  1  0
  4  5  1  0
  6  1  1  0
  7  6  1  0
  6  8  1  0
  8  9  1  0
  9 10  2  0
 11  9  1  0
 10 12  1  0
 13 11  2  0
 12 14  2  0
 14 13  1  0
 14 15  1  0
 15 16  1  0
 16 17  1  0
 16 18  1  0
 18 19  2  0
 20 18  1  0
 19 21  1  0
 22 20  2  0
 20 23  1  0
 21 24  1  0
 21 25  2  0
 25 22  1  0
 23 26  1  0
 23 27  2  0
 24 28  1  0
 25 29  1  0
 28 29  1  0
  4 30  2  0
  4 31  1  0
 32 31  1  0
 32 33  1  0
 33 34  1  0
 33 35  1  0
 34 36  1  0
 35 37  1  0
 35 38  1  0
 38 36  1  0
 36 39  1  0
 38 40  1  0
 41 39  1  0
 42 39  1  0
 43 41  2  0
 41 44  1  0
 45 42  2  0
 46 43  1  0
 44 47  2  0
 44 45  1  0
 48 46  2  0
 48 47  1  0
 47 49  1  0
  6 50  1  1
  7 51  1  0
  7 52  1  0
  8 53  1  0
  8 54  1  0
 10 55  1  0
 11 56  1  0
 12 57  1  0
 13 58  1  0
 16 59  1  6
 17 60  1  0
 17 61  1  0
 17 62  1  0
 19 63  1  0
 22 64  1  0
 28 65  1  0
 28 66  1  0
 32 67  1  0
 32 68  1  0
 33 69  1  0
 35 70  1  0
 36 71  1  0
 37 72  1  0
 38 73  1  0
 40 74  1  0
 42 75  1  0
 46 76  1  0
 49 77  1  0
 49 78  1  0
M  CHG  3   5  -1  23   1  26  -1
M  END
>  <EmbedRMS>  (426) 
0.0817978199711

$$$$

     RDKit          3D

 78 83  0  0  0  0  0  0  0  0999 V2000
   10.2804   43.7664   33.8251 C   0  0  0  0  0  0  0  0  0  0  0  0
   11.4111   43.5919   34.3668 O   0  0  0  0  0  0  0  0  0  0  0  0
    9.3619   42.7249   33.7347 O   0  0  0  0  0  0  0  0  0  0  0  0
    9.8900   41.2267   34.2944 P   0  0  0  0  0  0  0  0  0  0  0  0
   10.3728   41.4567   35.8839 O   0  0  0  0  0  0  0  0  0  0  0  0
    9.9459   45.0736   33.2114 C   0  0  1  0  0  0  0  0  0  0  0  0
   11.0267   46.0291   33.4707 N   0  0  0  0  0  0  0  0  0  0  0  0
    9.7535   44.8538   31.6952 C   0  0  0  0  0  0  0  0  0  0  0  0
    8.7955   45.8412   31.0852 C   0  0  0  0  0  0  0  0  0  0  0  0
    7.4089   45.6003   31.1005 C   0  0  0  0  0  0  0  0  0  0  0  0
    9.2828   46.9874   30.4398 C   0  0  0  0  0  0  0  0  0  0  0  0
    6.5286   46.5005   30.4846 C   0  0  0  0  0  0  0  0  0  0  0  0
    8.4026   47.8888   29.8294 C   0  0  0  0  0  0  0  0  0  0  0  0
    7.0128   47.6524   29.8490 C   0  0  0  0  0  0  0  0  0  0  0  0
    6.0807   48.5162   29.2498 O   0  0  0  0  0  0  0  0  0  0  0  0
    6.3689   49.7874   28.6590 C   0  0  2  0  0  0  0  0  0  0  0  0
    6.6457   50.8268   29.7513 C   0  0  0  0  0  0  0  0  0  0  0  0
    5.1812   50.2265   27.8237 C   0  0  0  0  0  0  0  0  0  0  0  0
    3.8806   50.0804   28.3672 C   0  0  0  0  0  0  0  0  0  0  0  0
    5.3304   50.7436   26.4936 C   0  0  0  0  0  0  0  0  0  0  0  0
    2.7887   50.4104   27.5753 C   0  0  0  0  0  0  0  0  0  0  0  0
    4.1800   51.0468   25.7290 C   0  0  0  0  0  0  0  0  0  0  0  0
    6.6245   50.9910   25.9216 N   0  0  0  0  0  0  0  0  0  0  0  0
    1.4456   50.3382   27.8910 O   0  0  0  0  0  0  0  0  0  0  0  0
    2.9319   50.8679   26.3104 C   0  0  0  0  0  0  0  0  0  0  0  0
    7.5721   51.6880   26.6349 O   0  0  0  0  0  0  0  0  0  0  0  0
    6.8190   50.7827   24.7061 O   0  0  0  0  0  0  0  0  0  0  0  0
    0.6986   50.7802   26.7493 C   0  0  0  0  0  0  0  0  0  0  0  0
    1.6864   51.1091   25.7630 O   0  0  0  0  0  0  0  0  0  0  0  0
    8.8127   40.1842   34.2128 O   0  0  0  0  0  0  0  0  0  0  0  0
   11.2415   40.7950   33.3705 O   0  0  0  0  0  0  0  0  0  0  0  0
   10.9178   40.6921   31.9983 C   0  0  0  0  0  0  0  0  0  0  0  0
   11.5175   39.3837   31.4423 C   0  0  0  0  0  0  0  0  0  0  0  0
   12.7507   39.0887   32.0752 O   0  0  0  0  0  0  0  0  0  0  0  0
   10.6027   38.1916   31.6659 C   0  0  0  0  0  0  0  0  0  0  0  0
   12.9384   37.6818   32.0278 C   0  0  0  0  0  0  0  0  0  0  0  0
    9.6371   38.0805   30.6470 O   0  0  0  0  0  0  0  0  0  0  0  0
   11.5780   37.0215   31.6935 C   0  0  0  0  0  0  0  0  0  0  0  0
   13.4844   37.2119   33.3242 N   0  0  0  0  0  0  0  0  0  0  0  0
   11.6095   36.3201   30.4679 O   0  0  0  0  0  0  0  0  0  0  0  0
   14.4797   36.3318   33.5730 C   0  0  0  0  0  0  0  0  0  0  0  0
   13.1135   37.6278   34.5691 C   0  0  0  0  0  0  0  0  0  0  0  0
   15.2073   35.6155   32.6742 N   0  0  0  0  0  0  0  0  0  0  0  0
   14.6754   36.2305   34.9184 C   0  0  0  0  0  0  0  0  0  0  0  0
   13.8213   37.0452   35.5785 N   0  0  0  0  0  0  0  0  0  0  0  0
   16.1640   34.7604   33.1549 C   0  0  0  0  0  0  0  0  0  0  0  0
   15.6524   35.3507   35.4132 C   0  0  0  0  0  0  0  0  0  0  0  0
   16.3794   34.6318   34.5044 N   0  0  0  0  0  0  0  0  0  0  0  0
   15.8999   35.1934   36.8091 N   0  0  0  0  0  0  0  0  0  0  0  0
    8.9996   45.4382   33.6726 H   0  0  0  0  0  0  0  0  0  0  0  0
   11.0505   46.2277   34.4980 H   0  0  0  0  0  0  0  0  0  0  0  0
   10.7764   46.9368   33.0157 H   0  0  0  0  0  0  0  0  0  0  0  0
   10.7405   44.9069   31.1836 H   0  0  0  0  0  0  0  0  0  0  0  0
    9.3634   43.8352   31.4717 H   0  0  0  0  0  0  0  0  0  0  0  0
    7.0132   44.7158   31.5842 H   0  0  0  0  0  0  0  0  0  0  0  0
   10.3472   47.1848   30.4052 H   0  0  0  0  0  0  0  0  0  0  0  0
    5.4644   46.3025   30.5036 H   0  0  0  0  0  0  0  0  0  0  0  0
    8.8199   48.7572   29.3413 H   0  0  0  0  0  0  0  0  0  0  0  0
    7.2614   49.6808   28.0116 H   0  0  0  0  0  0  0  0  0  0  0  0
    7.5462   50.5492   30.3358 H   0  0  0  0  0  0  0  0  0  0  0  0
    5.7843   50.8964   30.4492 H   0  0  0  0  0  0  0  0  0  0  0  0
    6.8220   51.8249   29.2973 H   0  0  0  0  0  0  0  0  0  0  0  0
    3.7250   49.7038   29.3704 H   0  0  0  0  0  0  0  0  0  0  0  0
    4.2588   51.4359   24.7220 H   0  0  0  0  0  0  0  0  0  0  0  0
    0.0999   51.6790   27.0065 H   0  0  0  0  0  0  0  0  0  0  0  0
    0.0443   49.9634   26.3787 H   0  0  0  0  0  0  0  0  0  0  0  0
   11.3951   41.5477   31.4741 H   0  0  0  0  0  0  0  0  0  0  0  0
    9.8290   40.7408   31.7625 H   0  0  0  0  0  0  0  0  0  0  0  0
   11.6982   39.5114   30.3500 H   0  0  0  0  0  0  0  0  0  0  0  0
   10.1117   38.2604   32.6661 H   0  0  0  0  0  0  0  0  0  0  0  0
   13.6767   37.4556   31.2267 H   0  0  0  0  0  0  0  0  0  0  0  0
    8.8960   38.6950   30.8873 H   0  0  0  0  0  0  0  0  0  0  0  0
   11.2791   36.3072   32.4922 H   0  0  0  0  0  0  0  0  0  0  0  0
   11.8828   36.9598   29.7588 H   0  0  0  0  0  0  0  0  0  0  0  0
   12.3300   38.3538   34.7446 H   0  0  0  0  0  0  0  0  0  0  0  0
   16.7562   34.1785   32.4621 H   0  0  0  0  0  0  0  0  0  0  0  0
   16.6347   34.5303   37.1417 H   0  0  0  0  0  0  0  0  0  0  0  0
   15.3531   35.7360   37.5140 H   0  0  0  0  0  0  0  0  0  0  0  0
  1  2  2  0
  1  3  1  0
  3  4  1  0
  4  5  1  0
  6  1  1  0
  7  6  1  0
  6  8  1  0
  8  9  1  0
  9 10  2  0
 11  9  1  0
 10 12  1  0
 13 11  2  0
 12 14  2  0
 14 13  1  0
 14 15  1  0
 15 16  1  0
 16 17  1  0
 16 18  1  0
 18 19  2  0
 20 18  1  0
 19 21  1  0
 22 20  2  0
 20 23  1  0
 21 24  1  0
 21 25  2  0
 25 22  1  0
 23 26  1  0
 23 27  2  0
 24 28  1  0
 25 29  1  0
 28 29  1  0
  4 30  2  0
  4 31  1  0
 32 31  1  0
 32 33  1  0
 33 34  1  0
 33 35  1  0
 34 36  1  0
 35 37  1  0
 35 38  1  0
 38 36  1  0
 36 39  1  0
 38 40  1  0
 41 39  1  0
 42 39  1  0
 43 41  2  0
 41 44  1  0
 45 42  2  0
 46 43  1  0
 44 47  2  0
 44 45  1  0
 48 46  2  0
 48 47  1  0
 47 49  1  0
  6 50  1  1
  7 51  1  0
  7 52  1  0
  8 53  1  0
  8 54  1  0
 10 55  1  0
 11 56  1  0
 12 57  1  0
 13 58  1  0
 16 59  1  6
 17 60  1  0
 17 61  1  0
 17 62  1  0
 19 63  1  0
 22 64  1  0
 28 65  1  0
 28 66  1  0
 32 67  1  0
 32 68  1  0
 33 69  1  0
 35 70  1  0
 36 71  1  0
 37 72  1  0
 38 73  1  0
 40 74  1  0
 42 75  1  0
 46 76  1  0
 49 77  1  0
 49 78  1  0
M  CHG  3   5  -1  23   1  26  -1
M  END
>  <EmbedRMS>  (427) 
0.0817859420026

$$$$

     RDKit          3D

 78 83  0  0  0  0  0  0  0  0999 V2000
   10.2838   43.7626   33.8277 C   0  0  0  0  0  0  0  0  0  0  0  0
   11.4103   43.5863   34.3767 O   0  0  0  0  0  0  0  0  0  0  0  0
    9.3631   42.7235   33.7354 O   0  0  0  0  0  0  0  0  0  0  0  0
    9.8898   41.2247   34.2935 P   0  0  0  0  0  0  0  0  0  0  0  0
   10.3734   41.4542   35.8829 O   0  0  0  0  0  0  0  0  0  0  0  0
    9.9548   45.0699   33.2065 C   0  0  1  0  0  0  0  0  0  0  0  0
   11.0198   46.0480   33.4569 N   0  0  0  0  0  0  0  0  0  0  0  0
    9.7500   44.8508   31.6926 C   0  0  0  0  0  0  0  0  0  0  0  0
    8.7941   45.8419   31.0873 C   0  0  0  0  0  0  0  0  0  0  0  0
    7.4076   45.6009   31.0998 C   0  0  0  0  0  0  0  0  0  0  0  0
    9.2831   46.9888   30.4446 C   0  0  0  0  0  0  0  0  0  0  0  0
    6.5284   46.5015   30.4834 C   0  0  0  0  0  0  0  0  0  0  0  0
    8.4039   47.8896   29.8314 C   0  0  0  0  0  0  0  0  0  0  0  0
    7.0140   47.6531   29.8487 C   0  0  0  0  0  0  0  0  0  0  0  0
    6.0828   48.5165   29.2483 O   0  0  0  0  0  0  0  0  0  0  0  0
    6.3676   49.7900   28.6635 C   0  0  2  0  0  0  0  0  0  0  0  0
    6.6728   50.8398   29.7389 C   0  0  0  0  0  0  0  0  0  0  0  0
    5.2109   50.2524   27.7932 C   0  0  0  0  0  0  0  0  0  0  0  0
    5.5270   51.0340   26.6546 C   0  0  0  0  0  0  0  0  0  0  0  0
    3.8348   49.9153   28.0484 C   0  0  0  0  0  0  0  0  0  0  0  0
    4.4997   51.4227   25.8055 C   0  0  0  0  0  0  0  0  0  0  0  0
    2.8359   50.3261   27.1367 C   0  0  0  0  0  0  0  0  0  0  0  0
    3.4288   49.1649   29.2036 N   0  0  0  0  0  0  0  0  0  0  0  0
    4.5798   52.1720   24.6474 O   0  0  0  0  0  0  0  0  0  0  0  0
    3.2120   51.0800   26.0339 C   0  0  0  0  0  0  0  0  0  0  0  0
    2.4268   48.2291   29.0898 O   0  0  0  0  0  0  0  0  0  0  0  0
    3.7990   49.5124   30.3431 O   0  0  0  0  0  0  0  0  0  0  0  0
    3.2547   52.3075   24.1159 C   0  0  0  0  0  0  0  0  0  0  0  0
    2.4121   51.5954   25.0322 O   0  0  0  0  0  0  0  0  0  0  0  0
    8.8115   40.1834   34.2126 O   0  0  0  0  0  0  0  0  0  0  0  0
   11.2402   40.7936   33.3673 O   0  0  0  0  0  0  0  0  0  0  0  0
   10.9134   40.6864   31.9955 C   0  0  0  0  0  0  0  0  0  0  0  0
   11.5166   39.3786   31.4404 C   0  0  0  0  0  0  0  0  0  0  0  0
   12.7486   39.0848   32.0734 O   0  0  0  0  0  0  0  0  0  0  0  0
   10.6039   38.1883   31.6669 C   0  0  0  0  0  0  0  0  0  0  0  0
   12.9329   37.6775   32.0284 C   0  0  0  0  0  0  0  0  0  0  0  0
    9.6374   38.0938   30.6484 O   0  0  0  0  0  0  0  0  0  0  0  0
   11.5737   37.0140   31.7055 C   0  0  0  0  0  0  0  0  0  0  0  0
   13.4853   37.2120   33.3238 N   0  0  0  0  0  0  0  0  0  0  0  0
   11.6210   36.3379   30.4683 O   0  0  0  0  0  0  0  0  0  0  0  0
   14.4804   36.3319   33.5726 C   0  0  0  0  0  0  0  0  0  0  0  0
   13.1141   37.6275   34.5689 C   0  0  0  0  0  0  0  0  0  0  0  0
   15.2076   35.6152   32.6740 N   0  0  0  0  0  0  0  0  0  0  0  0
   14.6761   36.2306   34.9181 C   0  0  0  0  0  0  0  0  0  0  0  0
   13.8218   37.0451   35.5783 N   0  0  0  0  0  0  0  0  0  0  0  0
   16.1642   34.7600   33.1548 C   0  0  0  0  0  0  0  0  0  0  0  0
   15.6528   35.3507   35.4131 C   0  0  0  0  0  0  0  0  0  0  0  0
   16.3795   34.6315   34.5043 N   0  0  0  0  0  0  0  0  0  0  0  0
   15.9001   35.1933   36.8090 N   0  0  0  0  0  0  0  0  0  0  0  0
    9.0099   45.4349   33.6673 H   0  0  0  0  0  0  0  0  0  0  0  0
   11.9348   45.6932   33.0924 H   0  0  0  0  0  0  0  0  0  0  0  0
   11.1135   46.1992   34.4882 H   0  0  0  0  0  0  0  0  0  0  0  0
   10.7303   44.8922   31.1676 H   0  0  0  0  0  0  0  0  0  0  0  0
    9.3507   43.8344   31.4765 H   0  0  0  0  0  0  0  0  0  0  0  0
    7.0109   44.7156   31.5814 H   0  0  0  0  0  0  0  0  0  0  0  0
   10.3476   47.1865   30.4147 H   0  0  0  0  0  0  0  0  0  0  0  0
    5.4640   46.3040   30.5004 H   0  0  0  0  0  0  0  0  0  0  0  0
    8.8214   48.7587   29.3447 H   0  0  0  0  0  0  0  0  0  0  0  0
    7.2614   49.6820   28.0107 H   0  0  0  0  0  0  0  0  0  0  0  0
    7.5045   50.5039   30.3908 H   0  0  0  0  0  0  0  0  0  0  0  0
    5.7868   51.0325   30.3761 H   0  0  0  0  0  0  0  0  0  0  0  0
    6.9757   51.7949   29.2590 H   0  0  0  0  0  0  0  0  0  0  0  0
    6.5470   51.3209   26.4308 H   0  0  0  0  0  0  0  0  0  0  0  0
    1.7933   50.0829   27.2968 H   0  0  0  0  0  0  0  0  0  0  0  0
    2.9630   53.3781   24.0800 H   0  0  0  0  0  0  0  0  0  0  0  0
    3.1969   51.8489   23.1066 H   0  0  0  0  0  0  0  0  0  0  0  0
   11.3831   41.5437   31.4675 H   0  0  0  0  0  0  0  0  0  0  0  0
    9.8226   40.7225   31.7629 H   0  0  0  0  0  0  0  0  0  0  0  0
   11.6978   39.5037   30.3478 H   0  0  0  0  0  0  0  0  0  0  0  0
   10.1084   38.2785   32.6626 H   0  0  0  0  0  0  0  0  0  0  0  0
   13.6638   37.4471   31.2214 H   0  0  0  0  0  0  0  0  0  0  0  0
    8.9763   37.4190   30.9531 H   0  0  0  0  0  0  0  0  0  0  0  0
   11.2821   36.3053   32.5171 H   0  0  0  0  0  0  0  0  0  0  0  0
   10.8658   35.6935   30.4652 H   0  0  0  0  0  0  0  0  0  0  0  0
   12.3293   38.3523   34.7444 H   0  0  0  0  0  0  0  0  0  0  0  0
   16.7561   34.1778   32.4621 H   0  0  0  0  0  0  0  0  0  0  0  0
   15.3533   35.7361   37.5138 H   0  0  0  0  0  0  0  0  0  0  0  0
   16.6345   34.5300   37.1416 H   0  0  0  0  0  0  0  0  0  0  0  0
  1  2  2  0
  1  3  1  0
  3  4  1  0
  4  5  1  0
  6  1  1  0
  7  6  1  0
  6  8  1  0
  8  9  1  0
  9 10  2  0
 11  9  1  0
 10 12  1  0
 13 11  2  0
 12 14  2  0
 14 13  1  0
 14 15  1  0
 15 16  1  0
 16 17  1  0
 16 18  1  0
 18 19  2  0
 20 18  1  0
 19 21  1  0
 22 20  2  0
 20 23  1  0
 21 24  1  0
 21 25  2  0
 25 22  1  0
 23 26  1  0
 23 27  2  0
 24 28  1  0
 25 29  1  0
 28 29  1  0
  4 30  2  0
  4 31  1  0
 32 31  1  0
 32 33  1  0
 33 34  1  0
 33 35  1  0
 34 36  1  0
 35 37  1  0
 35 38  1  0
 38 36  1  0
 36 39  1  0
 38 40  1  0
 41 39  1  0
 42 39  1  0
 43 41  2  0
 41 44  1  0
 45 42  2  0
 46 43  1  0
 44 47  2  0
 44 45  1  0
 48 46  2  0
 48 47  1  0
 47 49  1  0
  6 50  1  1
  7 51  1  0
  7 52  1  0
  8 53  1  0
  8 54  1  0
 10 55  1  0
 11 56  1  0
 12 57  1  0
 13 58  1  0
 16 59  1  6
 17 60  1  0
 17 61  1  0
 17 62  1  0
 19 63  1  0
 22 64  1  0
 28 65  1  0
 28 66  1  0
 32 67  1  0
 32 68  1  0
 33 69  1  0
 35 70  1  0
 36 71  1  0
 37 72  1  0
 38 73  1  0
 40 74  1  0
 42 75  1  0
 46 76  1  0
 49 77  1  0
 49 78  1  0
M  CHG  3   5  -1  23   1  26  -1
M  END
>  <EmbedRMS>  (428) 
0.0834383625401

$$$$

     RDKit          3D

 78 83  0  0  0  0  0  0  0  0999 V2000
   10.2834   43.7661   33.8252 C   0  0  0  0  0  0  0  0  0  0  0  0
   11.4101   43.5931   34.3751 O   0  0  0  0  0  0  0  0  0  0  0  0
    9.3638   42.7253   33.7344 O   0  0  0  0  0  0  0  0  0  0  0  0
    9.8905   41.2265   34.2937 P   0  0  0  0  0  0  0  0  0  0  0  0
   10.3732   41.4561   35.8833 O   0  0  0  0  0  0  0  0  0  0  0  0
    9.9546   45.0694   33.2029 C   0  0  1  0  0  0  0  0  0  0  0  0
   11.0271   46.0323   33.4752 N   0  0  0  0  0  0  0  0  0  0  0  0
    9.7467   44.8482   31.6867 C   0  0  0  0  0  0  0  0  0  0  0  0
    8.7923   45.8405   31.0830 C   0  0  0  0  0  0  0  0  0  0  0  0
    7.4043   45.6023   31.1011 C   0  0  0  0  0  0  0  0  0  0  0  0
    9.2824   46.9895   30.4425 C   0  0  0  0  0  0  0  0  0  0  0  0
    6.5241   46.5047   30.4881 C   0  0  0  0  0  0  0  0  0  0  0  0
    8.4007   47.8917   29.8358 C   0  0  0  0  0  0  0  0  0  0  0  0
    7.0212   47.6465   29.8415 C   0  0  0  0  0  0  0  0  0  0  0  0
    6.1571   48.5580   29.2257 O   0  0  0  0  0  0  0  0  0  0  0  0
    5.5275   48.3620   27.9516 C   0  0  2  0  0  0  0  0  0  0  0  0
    4.5400   47.1893   27.9647 C   0  0  0  0  0  0  0  0  0  0  0  0
    6.5553   48.2382   26.8302 C   0  0  0  0  0  0  0  0  0  0  0  0
    7.4020   47.1001   26.7874 C   0  0  0  0  0  0  0  0  0  0  0  0
    6.7373   49.2725   25.8505 C   0  0  0  0  0  0  0  0  0  0  0  0
    8.4036   47.0487   25.8276 C   0  0  0  0  0  0  0  0  0  0  0  0
    7.7839   49.1721   24.9073 C   0  0  0  0  0  0  0  0  0  0  0  0
    5.8691   50.4117   25.7826 N   0  0  0  0  0  0  0  0  0  0  0  0
    9.3407   46.0556   25.6175 O   0  0  0  0  0  0  0  0  0  0  0  0
    8.5904   48.0432   24.9312 C   0  0  0  0  0  0  0  0  0  0  0  0
    6.4048   51.6608   25.5710 O   0  0  0  0  0  0  0  0  0  0  0  0
    4.6425   50.2472   25.6207 O   0  0  0  0  0  0  0  0  0  0  0  0
   10.1685   46.4545   24.5166 C   0  0  0  0  0  0  0  0  0  0  0  0
    9.6543   47.7293   24.1077 O   0  0  0  0  0  0  0  0  0  0  0  0
    8.8125   40.1847   34.2124 O   0  0  0  0  0  0  0  0  0  0  0  0
   11.2417   40.7942   33.3694 O   0  0  0  0  0  0  0  0  0  0  0  0
   10.9179   40.6905   31.9969 C   0  0  0  0  0  0  0  0  0  0  0  0
   11.5181   39.3814   31.4408 C   0  0  0  0  0  0  0  0  0  0  0  0
   12.7497   39.0870   32.0746 O   0  0  0  0  0  0  0  0  0  0  0  0
   10.6045   38.1892   31.6654 C   0  0  0  0  0  0  0  0  0  0  0  0
   12.9344   37.6801   32.0290 C   0  0  0  0  0  0  0  0  0  0  0  0
    9.6419   38.0759   30.6439 O   0  0  0  0  0  0  0  0  0  0  0  0
   11.5741   37.0170   31.7045 C   0  0  0  0  0  0  0  0  0  0  0  0
   13.4851   37.2125   33.3241 N   0  0  0  0  0  0  0  0  0  0  0  0
   11.6079   36.3407   30.4680 O   0  0  0  0  0  0  0  0  0  0  0  0
   14.4801   36.3320   33.5727 C   0  0  0  0  0  0  0  0  0  0  0  0
   13.1141   37.6277   34.5693 C   0  0  0  0  0  0  0  0  0  0  0  0
   15.2073   35.6155   32.6739 N   0  0  0  0  0  0  0  0  0  0  0  0
   14.6758   36.2305   34.9182 C   0  0  0  0  0  0  0  0  0  0  0  0
   13.8218   37.0451   35.5785 N   0  0  0  0  0  0  0  0  0  0  0  0
   16.1639   34.7602   33.1546 C   0  0  0  0  0  0  0  0  0  0  0  0
   15.6526   35.3506   35.4130 C   0  0  0  0  0  0  0  0  0  0  0  0
   16.3794   34.6316   34.5041 N   0  0  0  0  0  0  0  0  0  0  0  0
   15.8998   35.1932   36.8090 N   0  0  0  0  0  0  0  0  0  0  0  0
    9.0119   45.4316   33.6706 H   0  0  0  0  0  0  0  0  0  0  0  0
   11.8904   45.7660   32.9468 H   0  0  0  0  0  0  0  0  0  0  0  0
   10.7256   46.9689   33.1207 H   0  0  0  0  0  0  0  0  0  0  0  0
   10.7232   44.8819   31.1548 H   0  0  0  0  0  0  0  0  0  0  0  0
    9.3417   43.8330   31.4752 H   0  0  0  0  0  0  0  0  0  0  0  0
    7.0072   44.7212   31.5900 H   0  0  0  0  0  0  0  0  0  0  0  0
   10.3466   47.1880   30.4111 H   0  0  0  0  0  0  0  0  0  0  0  0
    5.4591   46.3196   30.5296 H   0  0  0  0  0  0  0  0  0  0  0  0
    8.7902   48.7743   29.3448 H   0  0  0  0  0  0  0  0  0  0  0  0
    4.9079   49.2644   27.7985 H   0  0  0  0  0  0  0  0  0  0  0  0
    3.8066   47.3257   28.7873 H   0  0  0  0  0  0  0  0  0  0  0  0
    5.0551   46.2177   28.1049 H   0  0  0  0  0  0  0  0  0  0  0  0
    3.9848   47.1557   27.0031 H   0  0  0  0  0  0  0  0  0  0  0  0
    7.3035   46.2850   27.4908 H   0  0  0  0  0  0  0  0  0  0  0  0
    7.9459   49.9411   24.1630 H   0  0  0  0  0  0  0  0  0  0  0  0
   10.0826   45.7223   23.6865 H   0  0  0  0  0  0  0  0  0  0  0  0
   11.2238   46.5548   24.8464 H   0  0  0  0  0  0  0  0  0  0  0  0
   11.3947   41.5460   31.4722 H   0  0  0  0  0  0  0  0  0  0  0  0
    9.8290   40.7386   31.7616 H   0  0  0  0  0  0  0  0  0  0  0  0
   11.6995   39.5070   30.3483 H   0  0  0  0  0  0  0  0  0  0  0  0
   10.1089   38.2637   32.6631 H   0  0  0  0  0  0  0  0  0  0  0  0
   13.6662   37.4516   31.2224 H   0  0  0  0  0  0  0  0  0  0  0  0
    8.9010   38.6926   30.8792 H   0  0  0  0  0  0  0  0  0  0  0  0
   11.2648   36.3083   32.5087 H   0  0  0  0  0  0  0  0  0  0  0  0
   12.1373   35.5141   30.6164 H   0  0  0  0  0  0  0  0  0  0  0  0
   12.3300   38.3530   34.7450 H   0  0  0  0  0  0  0  0  0  0  0  0
   16.7558   34.1782   32.4618 H   0  0  0  0  0  0  0  0  0  0  0  0
   15.3532   35.7360   37.5141 H   0  0  0  0  0  0  0  0  0  0  0  0
   16.6345   34.5300   37.1414 H   0  0  0  0  0  0  0  0  0  0  0  0
  1  2  2  0
  1  3  1  0
  3  4  1  0
  4  5  1  0
  6  1  1  0
  7  6  1  0
  6  8  1  0
  8  9  1  0
  9 10  2  0
 11  9  1  0
 10 12  1  0
 13 11  2  0
 12 14  2  0
 14 13  1  0
 14 15  1  0
 15 16  1  0
 16 17  1  0
 16 18  1  0
 18 19  2  0
 20 18  1  0
 19 21  1  0
 22 20  2  0
 20 23  1  0
 21 24  1  0
 21 25  2  0
 25 22  1  0
 23 26  1  0
 23 27  2  0
 24 28  1  0
 25 29  1  0
 28 29  1  0
  4 30  2  0
  4 31  1  0
 32 31  1  0
 32 33  1  0
 33 34  1  0
 33 35  1  0
 34 36  1  0
 35 37  1  0
 35 38  1  0
 38 36  1  0
 36 39  1  0
 38 40  1  0
 41 39  1  0
 42 39  1  0
 43 41  2  0
 41 44  1  0
 45 42  2  0
 46 43  1  0
 44 47  2  0
 44 45  1  0
 48 46  2  0
 48 47  1  0
 47 49  1  0
  6 50  1  1
  7 51  1  0
  7 52  1  0
  8 53  1  0
  8 54  1  0
 10 55  1  0
 11 56  1  0
 12 57  1  0
 13 58  1  0
 16 59  1  6
 17 60  1  0
 17 61  1  0
 17 62  1  0
 19 63  1  0
 22 64  1  0
 28 65  1  0
 28 66  1  0
 32 67  1  0
 32 68  1  0
 33 69  1  0
 35 70  1  0
 36 71  1  0
 37 72  1  0
 38 73  1  0
 40 74  1  0
 42 75  1  0
 46 76  1  0
 49 77  1  0
 49 78  1  0
M  CHG  3   5  -1  23   1  26  -1
M  END
>  <EmbedRMS>  (429) 
0.0829584378686

$$$$

     RDKit          3D

 78 83  0  0  0  0  0  0  0  0999 V2000
   10.2839   43.7626   33.8276 C   0  0  0  0  0  0  0  0  0  0  0  0
   11.4103   43.5863   34.3767 O   0  0  0  0  0  0  0  0  0  0  0  0
    9.3631   42.7236   33.7353 O   0  0  0  0  0  0  0  0  0  0  0  0
    9.8898   41.2247   34.2935 P   0  0  0  0  0  0  0  0  0  0  0  0
   10.3734   41.4543   35.8829 O   0  0  0  0  0  0  0  0  0  0  0  0
    9.9550   45.0699   33.2064 C   0  0  1  0  0  0  0  0  0  0  0  0
   11.0198   46.0481   33.4572 N   0  0  0  0  0  0  0  0  0  0  0  0
    9.7508   44.8510   31.6923 C   0  0  0  0  0  0  0  0  0  0  0  0
    8.7949   45.8418   31.0869 C   0  0  0  0  0  0  0  0  0  0  0  0
    7.4087   45.6013   31.1003 C   0  0  0  0  0  0  0  0  0  0  0  0
    9.2825   46.9888   30.4452 C   0  0  0  0  0  0  0  0  0  0  0  0
    6.5267   46.5006   30.4852 C   0  0  0  0  0  0  0  0  0  0  0  0
    8.4001   47.8868   29.8342 C   0  0  0  0  0  0  0  0  0  0  0  0
    7.0173   47.6560   29.8440 C   0  0  0  0  0  0  0  0  0  0  0  0
    6.1971   48.6004   29.1993 O   0  0  0  0  0  0  0  0  0  0  0  0
    4.7727   48.5861   29.0416 C   0  0  2  0  0  0  0  0  0  0  0  0
    4.0795   48.8842   30.3802 C   0  0  0  0  0  0  0  0  0  0  0  0
    4.2835   47.3510   28.2845 C   0  0  0  0  0  0  0  0  0  0  0  0
    3.4219   46.4045   28.9042 C   0  0  0  0  0  0  0  0  0  0  0  0
    4.6150   47.1740   26.8981 C   0  0  0  0  0  0  0  0  0  0  0  0
    2.9633   45.3281   28.1568 C   0  0  0  0  0  0  0  0  0  0  0  0
    4.1052   46.0653   26.1858 C   0  0  0  0  0  0  0  0  0  0  0  0
    5.4140   48.1316   26.1876 N   0  0  0  0  0  0  0  0  0  0  0  0
    2.1391   44.2942   28.5580 O   0  0  0  0  0  0  0  0  0  0  0  0
    3.2912   45.1649   26.8560 C   0  0  0  0  0  0  0  0  0  0  0  0
    6.6935   48.4106   26.6050 O   0  0  0  0  0  0  0  0  0  0  0  0
    5.0528   48.5199   25.0576 O   0  0  0  0  0  0  0  0  0  0  0  0
    1.9399   43.4256   27.4344 C   0  0  0  0  0  0  0  0  0  0  0  0
    2.6924   44.0194   26.3679 O   0  0  0  0  0  0  0  0  0  0  0  0
    8.8114   40.1834   34.2125 O   0  0  0  0  0  0  0  0  0  0  0  0
   11.2401   40.7936   33.3673 O   0  0  0  0  0  0  0  0  0  0  0  0
   10.9134   40.6864   31.9955 C   0  0  0  0  0  0  0  0  0  0  0  0
   11.5166   39.3786   31.4404 C   0  0  0  0  0  0  0  0  0  0  0  0
   12.7486   39.0849   32.0734 O   0  0  0  0  0  0  0  0  0  0  0  0
   10.6039   38.1883   31.6669 C   0  0  0  0  0  0  0  0  0  0  0  0
   12.9329   37.6775   32.0284 C   0  0  0  0  0  0  0  0  0  0  0  0
    9.6373   38.0938   30.6484 O   0  0  0  0  0  0  0  0  0  0  0  0
   11.5737   37.0140   31.7055 C   0  0  0  0  0  0  0  0  0  0  0  0
   13.4853   37.2120   33.3238 N   0  0  0  0  0  0  0  0  0  0  0  0
   11.6210   36.3379   30.4683 O   0  0  0  0  0  0  0  0  0  0  0  0
   14.4804   36.3319   33.5726 C   0  0  0  0  0  0  0  0  0  0  0  0
   13.1141   37.6275   34.5689 C   0  0  0  0  0  0  0  0  0  0  0  0
   15.2076   35.6152   32.6740 N   0  0  0  0  0  0  0  0  0  0  0  0
   14.6761   36.2306   34.9181 C   0  0  0  0  0  0  0  0  0  0  0  0
   13.8218   37.0451   35.5783 N   0  0  0  0  0  0  0  0  0  0  0  0
   16.1641   34.7600   33.1548 C   0  0  0  0  0  0  0  0  0  0  0  0
   15.6527   35.3506   35.4131 C   0  0  0  0  0  0  0  0  0  0  0  0
   16.3795   34.6315   34.5043 N   0  0  0  0  0  0  0  0  0  0  0  0
   15.9001   35.1933   36.8090 N   0  0  0  0  0  0  0  0  0  0  0  0
    9.0099   45.4348   33.6669 H   0  0  0  0  0  0  0  0  0  0  0  0
   11.1132   46.1992   34.4885 H   0  0  0  0  0  0  0  0  0  0  0  0
   11.9350   45.6933   33.0930 H   0  0  0  0  0  0  0  0  0  0  0  0
    9.3520   43.8344   31.4758 H   0  0  0  0  0  0  0  0  0  0  0  0
   10.7312   44.8929   31.1677 H   0  0  0  0  0  0  0  0  0  0  0  0
    7.0135   44.7162   31.5837 H   0  0  0  0  0  0  0  0  0  0  0  0
   10.3465   47.1894   30.4151 H   0  0  0  0  0  0  0  0  0  0  0  0
    5.4768   46.2775   30.5244 H   0  0  0  0  0  0  0  0  0  0  0  0
    8.7944   48.7676   29.3432 H   0  0  0  0  0  0  0  0  0  0  0  0
    4.5187   49.4559   28.3973 H   0  0  0  0  0  0  0  0  0  0  0  0
    4.4312   49.8643   30.7666 H   0  0  0  0  0  0  0  0  0  0  0  0
    2.9796   48.9470   30.2373 H   0  0  0  0  0  0  0  0  0  0  0  0
    4.3060   48.1190   31.1479 H   0  0  0  0  0  0  0  0  0  0  0  0
    3.1121   46.4874   29.9360 H   0  0  0  0  0  0  0  0  0  0  0  0
    4.3401   45.9129   25.1400 H   0  0  0  0  0  0  0  0  0  0  0  0
    2.3296   42.4108   27.6596 H   0  0  0  0  0  0  0  0  0  0  0  0
    0.8632   43.3844   27.1670 H   0  0  0  0  0  0  0  0  0  0  0  0
   11.3831   41.5437   31.4675 H   0  0  0  0  0  0  0  0  0  0  0  0
    9.8226   40.7225   31.7628 H   0  0  0  0  0  0  0  0  0  0  0  0
   11.6978   39.5037   30.3477 H   0  0  0  0  0  0  0  0  0  0  0  0
   10.1084   38.2786   32.6626 H   0  0  0  0  0  0  0  0  0  0  0  0
   13.6638   37.4471   31.2214 H   0  0  0  0  0  0  0  0  0  0  0  0
    8.9763   37.4191   30.9532 H   0  0  0  0  0  0  0  0  0  0  0  0
   11.2821   36.3053   32.5171 H   0  0  0  0  0  0  0  0  0  0  0  0
   10.8658   35.6935   30.4652 H   0  0  0  0  0  0  0  0  0  0  0  0
   12.3293   38.3523   34.7444 H   0  0  0  0  0  0  0  0  0  0  0  0
   16.7561   34.1778   32.4621 H   0  0  0  0  0  0  0  0  0  0  0  0
   15.3533   35.7361   37.5138 H   0  0  0  0  0  0  0  0  0  0  0  0
   16.6345   34.5300   37.1416 H   0  0  0  0  0  0  0  0  0  0  0  0
  1  2  2  0
  1  3  1  0
  3  4  1  0
  4  5  1  0
  6  1  1  0
  7  6  1  0
  6  8  1  0
  8  9  1  0
  9 10  2  0
 11  9  1  0
 10 12  1  0
 13 11  2  0
 12 14  2  0
 14 13  1  0
 14 15  1  0
 15 16  1  0
 16 17  1  0
 16 18  1  0
 18 19  2  0
 20 18  1  0
 19 21  1  0
 22 20  2  0
 20 23  1  0
 21 24  1  0
 21 25  2  0
 25 22  1  0
 23 26  1  0
 23 27  2  0
 24 28  1  0
 25 29  1  0
 28 29  1  0
  4 30  2  0
  4 31  1  0
 32 31  1  0
 32 33  1  0
 33 34  1  0
 33 35  1  0
 34 36  1  0
 35 37  1  0
 35 38  1  0
 38 36  1  0
 36 39  1  0
 38 40  1  0
 41 39  1  0
 42 39  1  0
 43 41  2  0
 41 44  1  0
 45 42  2  0
 46 43  1  0
 44 47  2  0
 44 45  1  0
 48 46  2  0
 48 47  1  0
 47 49  1  0
  6 50  1  1
  7 51  1  0
  7 52  1  0
  8 53  1  0
  8 54  1  0
 10 55  1  0
 11 56  1  0
 12 57  1  0
 13 58  1  0
 16 59  1  6
 17 60  1  0
 17 61  1  0
 17 62  1  0
 19 63  1  0
 22 64  1  0
 28 65  1  0
 28 66  1  0
 32 67  1  0
 32 68  1  0
 33 69  1  0
 35 70  1  0
 36 71  1  0
 37 72  1  0
 38 73  1  0
 40 74  1  0
 42 75  1  0
 46 76  1  0
 49 77  1  0
 49 78  1  0
M  CHG  3   5  -1  23   1  26  -1
M  END
>  <EmbedRMS>  (430) 
0.0834336812352

$$$$

     RDKit          3D

 78 83  0  0  0  0  0  0  0  0999 V2000
   10.2840   43.7675   33.8259 C   0  0  0  0  0  0  0  0  0  0  0  0
   11.4095   43.5948   34.3781 O   0  0  0  0  0  0  0  0  0  0  0  0
    9.3644   42.7266   33.7335 O   0  0  0  0  0  0  0  0  0  0  0  0
    9.8907   41.2277   34.2924 P   0  0  0  0  0  0  0  0  0  0  0  0
   10.3746   41.4566   35.8812 O   0  0  0  0  0  0  0  0  0  0  0  0
    9.9553   45.0709   33.2041 C   0  0  1  0  0  0  0  0  0  0  0  0
   11.0269   46.0349   33.4766 N   0  0  0  0  0  0  0  0  0  0  0  0
    9.7493   44.8501   31.6883 C   0  0  0  0  0  0  0  0  0  0  0  0
    8.7942   45.8409   31.0827 C   0  0  0  0  0  0  0  0  0  0  0  0
    7.4068   45.5990   31.0980 C   0  0  0  0  0  0  0  0  0  0  0  0
    9.2830   46.9849   30.4329 C   0  0  0  0  0  0  0  0  0  0  0  0
    6.5226   46.5016   30.4913 C   0  0  0  0  0  0  0  0  0  0  0  0
    8.3983   47.8829   29.8235 C   0  0  0  0  0  0  0  0  0  0  0  0
    7.0148   47.6596   29.8626 C   0  0  0  0  0  0  0  0  0  0  0  0
    6.1607   48.6044   29.2741 O   0  0  0  0  0  0  0  0  0  0  0  0
    5.0781   49.2571   29.9536 C   0  0  2  0  0  0  0  0  0  0  0  0
    5.6049   49.9481   31.2241 C   0  0  0  0  0  0  0  0  0  0  0  0
    3.8850   48.3161   30.1530 C   0  0  0  0  0  0  0  0  0  0  0  0
    3.3563   48.0716   31.4529 C   0  0  0  0  0  0  0  0  0  0  0  0
    3.2964   47.6296   29.0319 C   0  0  0  0  0  0  0  0  0  0  0  0
    2.3049   47.1757   31.5928 C   0  0  0  0  0  0  0  0  0  0  0  0
    2.2311   46.7218   29.2427 C   0  0  0  0  0  0  0  0  0  0  0  0
    3.7735   47.8199   27.6877 N   0  0  0  0  0  0  0  0  0  0  0  0
    1.6543   46.7923   32.7519 O   0  0  0  0  0  0  0  0  0  0  0  0
    1.7646   46.5309   30.5358 C   0  0  0  0  0  0  0  0  0  0  0  0
    3.7285   46.7762   26.7930 O   0  0  0  0  0  0  0  0  0  0  0  0
    4.0252   48.9632   27.2562 O   0  0  0  0  0  0  0  0  0  0  0  0
    0.6324   45.8505   32.3936 C   0  0  0  0  0  0  0  0  0  0  0  0
    0.7376   45.7108   30.9686 O   0  0  0  0  0  0  0  0  0  0  0  0
    8.8131   40.1858   34.2119 O   0  0  0  0  0  0  0  0  0  0  0  0
   11.2414   40.7942   33.3683 O   0  0  0  0  0  0  0  0  0  0  0  0
   10.9178   40.6909   31.9957 C   0  0  0  0  0  0  0  0  0  0  0  0
   11.5187   39.3818   31.4391 C   0  0  0  0  0  0  0  0  0  0  0  0
   12.7506   39.0873   32.0728 O   0  0  0  0  0  0  0  0  0  0  0  0
   10.6063   38.1892   31.6639 C   0  0  0  0  0  0  0  0  0  0  0  0
   12.9353   37.6803   32.0286 C   0  0  0  0  0  0  0  0  0  0  0  0
    9.6448   38.0746   30.6418 O   0  0  0  0  0  0  0  0  0  0  0  0
   11.5748   37.0167   31.7036 C   0  0  0  0  0  0  0  0  0  0  0  0
   13.4853   37.2133   33.3246 N   0  0  0  0  0  0  0  0  0  0  0  0
   11.6064   36.3392   30.4680 O   0  0  0  0  0  0  0  0  0  0  0  0
   14.4811   36.3338   33.5738 C   0  0  0  0  0  0  0  0  0  0  0  0
   13.1104   37.6247   34.5700 C   0  0  0  0  0  0  0  0  0  0  0  0
   15.2072   35.6160   32.6754 N   0  0  0  0  0  0  0  0  0  0  0  0
   14.6761   36.2313   34.9194 C   0  0  0  0  0  0  0  0  0  0  0  0
   13.8179   37.0418   35.5794 N   0  0  0  0  0  0  0  0  0  0  0  0
   16.1642   34.7610   33.1555 C   0  0  0  0  0  0  0  0  0  0  0  0
   15.6522   35.3499   35.4139 C   0  0  0  0  0  0  0  0  0  0  0  0
   16.3796   34.6318   34.5048 N   0  0  0  0  0  0  0  0  0  0  0  0
   15.8993   35.1903   36.8093 N   0  0  0  0  0  0  0  0  0  0  0  0
    9.0118   45.4313   33.6718 H   0  0  0  0  0  0  0  0  0  0  0  0
   10.7241   46.9711   33.1206 H   0  0  0  0  0  0  0  0  0  0  0  0
   11.8934   45.7665   32.9532 H   0  0  0  0  0  0  0  0  0  0  0  0
    9.3474   43.8342   31.4757 H   0  0  0  0  0  0  0  0  0  0  0  0
   10.7273   44.8863   31.1604 H   0  0  0  0  0  0  0  0  0  0  0  0
    7.0135   44.7108   31.5772 H   0  0  0  0  0  0  0  0  0  0  0  0
   10.3490   47.1789   30.3885 H   0  0  0  0  0  0  0  0  0  0  0  0
    5.4659   46.2791   30.5035 H   0  0  0  0  0  0  0  0  0  0  0  0
    8.7876   48.7639   29.3303 H   0  0  0  0  0  0  0  0  0  0  0  0
    4.7283   50.0867   29.3034 H   0  0  0  0  0  0  0  0  0  0  0  0
    5.9752   49.2029   31.9597 H   0  0  0  0  0  0  0  0  0  0  0  0
    4.8088   50.5700   31.6854 H   0  0  0  0  0  0  0  0  0  0  0  0
    6.4469   50.6223   30.9584 H   0  0  0  0  0  0  0  0  0  0  0  0
    3.7469   48.5409   32.3432 H   0  0  0  0  0  0  0  0  0  0  0  0
    1.7687   46.1917   28.4205 H   0  0  0  0  0  0  0  0  0  0  0  0
   -0.3710   46.2469   32.6701 H   0  0  0  0  0  0  0  0  0  0  0  0
    0.8189   44.8749   32.8859 H   0  0  0  0  0  0  0  0  0  0  0  0
   11.3950   41.5472   31.4712 H   0  0  0  0  0  0  0  0  0  0  0  0
    9.8275   40.7355   31.7621 H   0  0  0  0  0  0  0  0  0  0  0  0
   11.6984   39.5081   30.3460 H   0  0  0  0  0  0  0  0  0  0  0  0
   10.1128   38.2650   32.6624 H   0  0  0  0  0  0  0  0  0  0  0  0
   13.6684   37.4520   31.2230 H   0  0  0  0  0  0  0  0  0  0  0  0
    8.9046   38.6915   30.8767 H   0  0  0  0  0  0  0  0  0  0  0  0
   11.2667   36.3069   32.5070 H   0  0  0  0  0  0  0  0  0  0  0  0
   12.1376   35.5145   30.6179 H   0  0  0  0  0  0  0  0  0  0  0  0
   12.3205   38.3441   34.7456 H   0  0  0  0  0  0  0  0  0  0  0  0
   16.7582   34.1830   32.4613 H   0  0  0  0  0  0  0  0  0  0  0  0
   15.3555   35.7358   37.5141 H   0  0  0  0  0  0  0  0  0  0  0  0
   16.6366   34.5293   37.1407 H   0  0  0  0  0  0  0  0  0  0  0  0
  1  2  2  0
  1  3  1  0
  3  4  1  0
  4  5  1  0
  6  1  1  0
  7  6  1  0
  6  8  1  0
  8  9  1  0
  9 10  2  0
 11  9  1  0
 10 12  1  0
 13 11  2  0
 12 14  2  0
 14 13  1  0
 14 15  1  0
 15 16  1  0
 16 17  1  0
 16 18  1  0
 18 19  2  0
 20 18  1  0
 19 21  1  0
 22 20  2  0
 20 23  1  0
 21 24  1  0
 21 25  2  0
 25 22  1  0
 23 26  1  0
 23 27  2  0
 24 28  1  0
 25 29  1  0
 28 29  1  0
  4 30  2  0
  4 31  1  0
 32 31  1  0
 32 33  1  0
 33 34  1  0
 33 35  1  0
 34 36  1  0
 35 37  1  0
 35 38  1  0
 38 36  1  0
 36 39  1  0
 38 40  1  0
 41 39  1  0
 42 39  1  0
 43 41  2  0
 41 44  1  0
 45 42  2  0
 46 43  1  0
 44 47  2  0
 44 45  1  0
 48 46  2  0
 48 47  1  0
 47 49  1  0
  6 50  1  1
  7 51  1  0
  7 52  1  0
  8 53  1  0
  8 54  1  0
 10 55  1  0
 11 56  1  0
 12 57  1  0
 13 58  1  0
 16 59  1  6
 17 60  1  0
 17 61  1  0
 17 62  1  0
 19 63  1  0
 22 64  1  0
 28 65  1  0
 28 66  1  0
 32 67  1  0
 32 68  1  0
 33 69  1  0
 35 70  1  0
 36 71  1  0
 37 72  1  0
 38 73  1  0
 40 74  1  0
 42 75  1  0
 46 76  1  0
 49 77  1  0
 49 78  1  0
M  CHG  3   5  -1  23   1  26  -1
M  END
>  <EmbedRMS>  (431) 
0.0828863617936

$$$$

     RDKit          3D

 78 83  0  0  0  0  0  0  0  0999 V2000
   10.2846   43.7620   33.8262 C   0  0  0  0  0  0  0  0  0  0  0  0
   11.4103   43.5875   34.3781 O   0  0  0  0  0  0  0  0  0  0  0  0
    9.3630   42.7234   33.7348 O   0  0  0  0  0  0  0  0  0  0  0  0
    9.8878   41.2244   34.2930 P   0  0  0  0  0  0  0  0  0  0  0  0
   10.3718   41.4535   35.8822 O   0  0  0  0  0  0  0  0  0  0  0  0
    9.9537   45.0679   33.2035 C   0  0  1  0  0  0  0  0  0  0  0  0
   11.0157   46.0484   33.4549 N   0  0  0  0  0  0  0  0  0  0  0  0
    9.7478   44.8467   31.6910 C   0  0  0  0  0  0  0  0  0  0  0  0
    8.7937   45.8390   31.0845 C   0  0  0  0  0  0  0  0  0  0  0  0
    7.4056   45.6046   31.1050 C   0  0  0  0  0  0  0  0  0  0  0  0
    9.2850   46.9826   30.4369 C   0  0  0  0  0  0  0  0  0  0  0  0
    6.5272   46.5124   30.4976 C   0  0  0  0  0  0  0  0  0  0  0  0
    8.4078   47.8854   29.8259 C   0  0  0  0  0  0  0  0  0  0  0  0
    7.0173   47.6558   29.8505 C   0  0  0  0  0  0  0  0  0  0  0  0
    6.0941   48.5364   29.2635 O   0  0  0  0  0  0  0  0  0  0  0  0
    6.3966   49.4609   28.2169 C   0  0  2  0  0  0  0  0  0  0  0  0
    5.2464   50.4553   28.0483 C   0  0  0  0  0  0  0  0  0  0  0  0
    6.7001   48.7196   26.9204 C   0  0  0  0  0  0  0  0  0  0  0  0
    8.0053   48.8394   26.3792 C   0  0  0  0  0  0  0  0  0  0  0  0
    5.7286   47.9160   26.2216 C   0  0  0  0  0  0  0  0  0  0  0  0
    8.2965   48.1866   25.1856 C   0  0  0  0  0  0  0  0  0  0  0  0
    6.0759   47.3042   24.9963 C   0  0  0  0  0  0  0  0  0  0  0  0
    4.4002   47.7067   26.7251 N   0  0  0  0  0  0  0  0  0  0  0  0
    9.4960   48.1457   24.4959 O   0  0  0  0  0  0  0  0  0  0  0  0
    7.3700   47.4574   24.5210 C   0  0  0  0  0  0  0  0  0  0  0  0
    3.3329   47.7266   25.8573 O   0  0  0  0  0  0  0  0  0  0  0  0
    4.2237   47.2734   27.8825 O   0  0  0  0  0  0  0  0  0  0  0  0
    9.3090   47.3333   23.3271 C   0  0  0  0  0  0  0  0  0  0  0  0
    7.9329   46.9243   23.3749 O   0  0  0  0  0  0  0  0  0  0  0  0
    8.8112   40.1809   34.2131 O   0  0  0  0  0  0  0  0  0  0  0  0
   11.2378   40.7964   33.3659 O   0  0  0  0  0  0  0  0  0  0  0  0
   10.9117   40.6898   31.9943 C   0  0  0  0  0  0  0  0  0  0  0  0
   11.5166   39.3801   31.4423 C   0  0  0  0  0  0  0  0  0  0  0  0
   12.7484   39.0862   32.0757 O   0  0  0  0  0  0  0  0  0  0  0  0
   10.6046   38.1875   31.6674 C   0  0  0  0  0  0  0  0  0  0  0  0
   12.9344   37.6783   32.0289 C   0  0  0  0  0  0  0  0  0  0  0  0
    9.6405   38.0913   30.6468 O   0  0  0  0  0  0  0  0  0  0  0  0
   11.5756   37.0136   31.7041 C   0  0  0  0  0  0  0  0  0  0  0  0
   13.4846   37.2130   33.3254 N   0  0  0  0  0  0  0  0  0  0  0  0
   11.6223   36.3366   30.4670 O   0  0  0  0  0  0  0  0  0  0  0  0
   14.4806   36.3331   33.5737 C   0  0  0  0  0  0  0  0  0  0  0  0
   13.1127   37.6285   34.5711 C   0  0  0  0  0  0  0  0  0  0  0  0
   15.2075   35.6160   32.6743 N   0  0  0  0  0  0  0  0  0  0  0  0
   14.6759   36.2308   34.9192 C   0  0  0  0  0  0  0  0  0  0  0  0
   13.8209   37.0450   35.5797 N   0  0  0  0  0  0  0  0  0  0  0  0
   16.1649   34.7606   33.1535 C   0  0  0  0  0  0  0  0  0  0  0  0
   15.6531   35.3495   35.4129 C   0  0  0  0  0  0  0  0  0  0  0  0
   16.3806   34.6317   34.5029 N   0  0  0  0  0  0  0  0  0  0  0  0
   15.9018   35.1894   36.8085 N   0  0  0  0  0  0  0  0  0  0  0  0
    9.0068   45.4319   33.6587 H   0  0  0  0  0  0  0  0  0  0  0  0
   11.1057   46.1984   34.4868 H   0  0  0  0  0  0  0  0  0  0  0  0
   11.9314   45.6948   33.0913 H   0  0  0  0  0  0  0  0  0  0  0  0
    9.3478   43.8297   31.4773 H   0  0  0  0  0  0  0  0  0  0  0  0
   10.7278   44.8833   31.1675 H   0  0  0  0  0  0  0  0  0  0  0  0
    7.0062   44.7232   31.5925 H   0  0  0  0  0  0  0  0  0  0  0  0
   10.3494   47.1797   30.4024 H   0  0  0  0  0  0  0  0  0  0  0  0
    5.4614   46.3245   30.5287 H   0  0  0  0  0  0  0  0  0  0  0  0
    8.8282   48.7610   29.3541 H   0  0  0  0  0  0  0  0  0  0  0  0
    7.2690   50.0800   28.5237 H   0  0  0  0  0  0  0  0  0  0  0  0
    5.4319   51.1074   27.1705 H   0  0  0  0  0  0  0  0  0  0  0  0
    5.1721   51.0940   28.9551 H   0  0  0  0  0  0  0  0  0  0  0  0
    4.2698   49.9446   27.9191 H   0  0  0  0  0  0  0  0  0  0  0  0
    8.7755   49.4174   26.8754 H   0  0  0  0  0  0  0  0  0  0  0  0
    5.3639   46.7026   24.4452 H   0  0  0  0  0  0  0  0  0  0  0  0
    9.5064   47.9306   22.4113 H   0  0  0  0  0  0  0  0  0  0  0  0
    9.9704   46.4426   23.3689 H   0  0  0  0  0  0  0  0  0  0  0  0
   11.3875   41.5485   31.4695 H   0  0  0  0  0  0  0  0  0  0  0  0
    9.8184   40.7212   31.7623 H   0  0  0  0  0  0  0  0  0  0  0  0
   11.7023   39.5054   30.3514 H   0  0  0  0  0  0  0  0  0  0  0  0
   10.1082   38.2754   32.6642 H   0  0  0  0  0  0  0  0  0  0  0  0
   13.6680   37.4459   31.2231 H   0  0  0  0  0  0  0  0  0  0  0  0
    8.9767   37.4195   30.9524 H   0  0  0  0  0  0  0  0  0  0  0  0
   11.2845   36.3022   32.5126 H   0  0  0  0  0  0  0  0  0  0  0  0
   10.8658   35.6930   30.4627 H   0  0  0  0  0  0  0  0  0  0  0  0
   12.3259   38.3519   34.7497 H   0  0  0  0  0  0  0  0  0  0  0  0
   16.7587   34.1798   32.4594 H   0  0  0  0  0  0  0  0  0  0  0  0
   15.3578   35.7295   37.5172 H   0  0  0  0  0  0  0  0  0  0  0  0
   16.6381   34.5264   37.1378 H   0  0  0  0  0  0  0  0  0  0  0  0
  1  2  2  0
  1  3  1  0
  3  4  1  0
  4  5  1  0
  6  1  1  0
  7  6  1  0
  6  8  1  0
  8  9  1  0
  9 10  2  0
 11  9  1  0
 10 12  1  0
 13 11  2  0
 12 14  2  0
 14 13  1  0
 14 15  1  0
 15 16  1  0
 16 17  1  0
 16 18  1  0
 18 19  2  0
 20 18  1  0
 19 21  1  0
 22 20  2  0
 20 23  1  0
 21 24  1  0
 21 25  2  0
 25 22  1  0
 23 26  1  0
 23 27  2  0
 24 28  1  0
 25 29  1  0
 28 29  1  0
  4 30  2  0
  4 31  1  0
 32 31  1  0
 32 33  1  0
 33 34  1  0
 33 35  1  0
 34 36  1  0
 35 37  1  0
 35 38  1  0
 38 36  1  0
 36 39  1  0
 38 40  1  0
 41 39  1  0
 42 39  1  0
 43 41  2  0
 41 44  1  0
 45 42  2  0
 46 43  1  0
 44 47  2  0
 44 45  1  0
 48 46  2  0
 48 47  1  0
 47 49  1  0
  6 50  1  1
  7 51  1  0
  7 52  1  0
  8 53  1  0
  8 54  1  0
 10 55  1  0
 11 56  1  0
 12 57  1  0
 13 58  1  0
 16 59  1  1
 17 60  1  0
 17 61  1  0
 17 62  1  0
 19 63  1  0
 22 64  1  0
 28 65  1  0
 28 66  1  0
 32 67  1  0
 32 68  1  0
 33 69  1  0
 35 70  1  0
 36 71  1  0
 37 72  1  0
 38 73  1  0
 40 74  1  0
 42 75  1  0
 46 76  1  0
 49 77  1  0
 49 78  1  0
M  CHG  3   5  -1  23   1  26  -1
M  END
>  <EmbedRMS>  (432) 
0.0833358590878

$$$$

     RDKit          3D

 78 83  0  0  0  0  0  0  0  0999 V2000
   10.2834   43.7662   33.8256 C   0  0  0  0  0  0  0  0  0  0  0  0
   11.4102   43.5930   34.3752 O   0  0  0  0  0  0  0  0  0  0  0  0
    9.3637   42.7255   33.7349 O   0  0  0  0  0  0  0  0  0  0  0  0
    9.8903   41.2267   34.2942 P   0  0  0  0  0  0  0  0  0  0  0  0
   10.3735   41.4561   35.8837 O   0  0  0  0  0  0  0  0  0  0  0  0
    9.9547   45.0696   33.2036 C   0  0  1  0  0  0  0  0  0  0  0  0
   11.0272   46.0323   33.4760 N   0  0  0  0  0  0  0  0  0  0  0  0
    9.7471   44.8484   31.6876 C   0  0  0  0  0  0  0  0  0  0  0  0
    8.7925   45.8410   31.0845 C   0  0  0  0  0  0  0  0  0  0  0  0
    7.4059   45.6008   31.0991 C   0  0  0  0  0  0  0  0  0  0  0  0
    9.2818   46.9876   30.4414 C   0  0  0  0  0  0  0  0  0  0  0  0
    6.5246   46.5004   30.4843 C   0  0  0  0  0  0  0  0  0  0  0  0
    8.4005   47.8878   29.8315 C   0  0  0  0  0  0  0  0  0  0  0  0
    7.0186   47.6576   29.8478 C   0  0  0  0  0  0  0  0  0  0  0  0
    6.1810   48.5978   29.2254 O   0  0  0  0  0  0  0  0  0  0  0  0
    4.7511   48.5672   29.2384 C   0  0  2  0  0  0  0  0  0  0  0  0
    4.2286   49.6293   28.2725 C   0  0  0  0  0  0  0  0  0  0  0  0
    4.2250   48.8335   30.6387 C   0  0  0  0  0  0  0  0  0  0  0  0
    4.8147   49.8754   31.3961 C   0  0  0  0  0  0  0  0  0  0  0  0
    3.1971   48.0296   31.2330 C   0  0  0  0  0  0  0  0  0  0  0  0
    4.3992   50.0588   32.7082 C   0  0  0  0  0  0  0  0  0  0  0  0
    2.8261   48.2535   32.5789 C   0  0  0  0  0  0  0  0  0  0  0  0
    2.5163   47.0076   30.4884 N   0  0  0  0  0  0  0  0  0  0  0  0
    4.8400   50.9925   33.6262 O   0  0  0  0  0  0  0  0  0  0  0  0
    3.4509   49.2789   33.2762 C   0  0  0  0  0  0  0  0  0  0  0  0
    2.0135   47.2836   29.2381 O   0  0  0  0  0  0  0  0  0  0  0  0
    2.1819   45.9444   31.0508 O   0  0  0  0  0  0  0  0  0  0  0  0
    4.1200   50.7845   34.8489 C   0  0  0  0  0  0  0  0  0  0  0  0
    3.2434   49.6813   34.5815 O   0  0  0  0  0  0  0  0  0  0  0  0
    8.8121   40.1850   34.2130 O   0  0  0  0  0  0  0  0  0  0  0  0
   11.2407   40.7940   33.3693 O   0  0  0  0  0  0  0  0  0  0  0  0
   10.9151   40.6905   31.9974 C   0  0  0  0  0  0  0  0  0  0  0  0
   11.5252   39.3886   31.4375 C   0  0  0  0  0  0  0  0  0  0  0  0
   12.7500   39.0874   32.0799 O   0  0  0  0  0  0  0  0  0  0  0  0
   10.6092   38.1926   31.6470 C   0  0  0  0  0  0  0  0  0  0  0  0
   12.9332   37.6793   32.0294 C   0  0  0  0  0  0  0  0  0  0  0  0
    9.6122   38.0895   30.6542 O   0  0  0  0  0  0  0  0  0  0  0  0
   11.5743   37.0145   31.7024 C   0  0  0  0  0  0  0  0  0  0  0  0
   13.4844   37.2108   33.3241 N   0  0  0  0  0  0  0  0  0  0  0  0
   11.6297   36.3239   30.4740 O   0  0  0  0  0  0  0  0  0  0  0  0
   14.4802   36.3313   33.5727 C   0  0  0  0  0  0  0  0  0  0  0  0
   13.1138   37.6266   34.5692 C   0  0  0  0  0  0  0  0  0  0  0  0
   15.2075   35.6149   32.6739 N   0  0  0  0  0  0  0  0  0  0  0  0
   14.6761   36.2303   34.9181 C   0  0  0  0  0  0  0  0  0  0  0  0
   13.8220   37.0447   35.5785 N   0  0  0  0  0  0  0  0  0  0  0  0
   16.1643   34.7600   33.1547 C   0  0  0  0  0  0  0  0  0  0  0  0
   15.6529   35.3505   35.4130 C   0  0  0  0  0  0  0  0  0  0  0  0
   16.3798   34.6315   34.5042 N   0  0  0  0  0  0  0  0  0  0  0  0
   15.9003   35.1932   36.8090 N   0  0  0  0  0  0  0  0  0  0  0  0
    9.0119   45.4317   33.6712 H   0  0  0  0  0  0  0  0  0  0  0  0
   10.7258   46.9689   33.1216 H   0  0  0  0  0  0  0  0  0  0  0  0
   11.8907   45.7661   32.9476 H   0  0  0  0  0  0  0  0  0  0  0  0
    9.3425   43.8332   31.4758 H   0  0  0  0  0  0  0  0  0  0  0  0
   10.7236   44.8825   31.1558 H   0  0  0  0  0  0  0  0  0  0  0  0
    7.0102   44.7148   31.5805 H   0  0  0  0  0  0  0  0  0  0  0  0
   10.3460   47.1859   30.4095 H   0  0  0  0  0  0  0  0  0  0  0  0
    5.4670   46.2820   30.5094 H   0  0  0  0  0  0  0  0  0  0  0  0
    8.7937   48.7705   29.3432 H   0  0  0  0  0  0  0  0  0  0  0  0
    4.4240   47.5785   28.8564 H   0  0  0  0  0  0  0  0  0  0  0  0
    4.5874   49.4097   27.2446 H   0  0  0  0  0  0  0  0  0  0  0  0
    4.5912   50.6378   28.5654 H   0  0  0  0  0  0  0  0  0  0  0  0
    3.1179   49.6327   28.2647 H   0  0  0  0  0  0  0  0  0  0  0  0
    5.5901   50.5072   30.9817 H   0  0  0  0  0  0  0  0  0  0  0  0
    2.0573   47.6609   33.0578 H   0  0  0  0  0  0  0  0  0  0  0  0
    3.5300   51.6892   35.1058 H   0  0  0  0  0  0  0  0  0  0  0  0
    4.8222   50.5258   35.6689 H   0  0  0  0  0  0  0  0  0  0  0  0
   11.3802   41.5529   31.4733 H   0  0  0  0  0  0  0  0  0  0  0  0
    9.8243   40.7216   31.7643 H   0  0  0  0  0  0  0  0  0  0  0  0
   11.7266   39.5311   30.3513 H   0  0  0  0  0  0  0  0  0  0  0  0
   10.1110   38.2747   32.6387 H   0  0  0  0  0  0  0  0  0  0  0  0
   13.6652   37.4519   31.2226 H   0  0  0  0  0  0  0  0  0  0  0  0
   10.0511   38.1143   29.7645 H   0  0  0  0  0  0  0  0  0  0  0  0
   11.2762   36.3141   32.5189 H   0  0  0  0  0  0  0  0  0  0  0  0
   10.8593   35.6978   30.4640 H   0  0  0  0  0  0  0  0  0  0  0  0
   12.3295   38.3518   34.7449 H   0  0  0  0  0  0  0  0  0  0  0  0
   16.7564   34.1780   32.4620 H   0  0  0  0  0  0  0  0  0  0  0  0
   15.3534   35.7359   37.5138 H   0  0  0  0  0  0  0  0  0  0  0  0
   16.6349   34.5300   37.1415 H   0  0  0  0  0  0  0  0  0  0  0  0
  1  2  2  0
  1  3  1  0
  3  4  1  0
  4  5  1  0
  6  1  1  0
  7  6  1  0
  6  8  1  0
  8  9  1  0
  9 10  2  0
 11  9  1  0
 10 12  1  0
 13 11  2  0
 12 14  2  0
 14 13  1  0
 14 15  1  0
 15 16  1  0
 16 17  1  0
 16 18  1  0
 18 19  2  0
 20 18  1  0
 19 21  1  0
 22 20  2  0
 20 23  1  0
 21 24  1  0
 21 25  2  0
 25 22  1  0
 23 26  1  0
 23 27  2  0
 24 28  1  0
 25 29  1  0
 28 29  1  0
  4 30  2  0
  4 31  1  0
 32 31  1  0
 32 33  1  0
 33 34  1  0
 33 35  1  0
 34 36  1  0
 35 37  1  0
 35 38  1  0
 38 36  1  0
 36 39  1  0
 38 40  1  0
 41 39  1  0
 42 39  1  0
 43 41  2  0
 41 44  1  0
 45 42  2  0
 46 43  1  0
 44 47  2  0
 44 45  1  0
 48 46  2  0
 48 47  1  0
 47 49  1  0
  6 50  1  1
  7 51  1  0
  7 52  1  0
  8 53  1  0
  8 54  1  0
 10 55  1  0
 11 56  1  0
 12 57  1  0
 13 58  1  0
 16 59  1  6
 17 60  1  0
 17 61  1  0
 17 62  1  0
 19 63  1  0
 22 64  1  0
 28 65  1  0
 28 66  1  0
 32 67  1  0
 32 68  1  0
 33 69  1  0
 35 70  1  0
 36 71  1  0
 37 72  1  0
 38 73  1  0
 40 74  1  0
 42 75  1  0
 46 76  1  0
 49 77  1  0
 49 78  1  0
M  CHG  3   5  -1  23   1  26  -1
M  END
>  <EmbedRMS>  (433) 
0.0818086530384

$$$$

     RDKit          3D

 78 83  0  0  0  0  0  0  0  0999 V2000
   10.2803   43.7665   33.8250 C   0  0  0  0  0  0  0  0  0  0  0  0
   11.4110   43.5919   34.3666 O   0  0  0  0  0  0  0  0  0  0  0  0
    9.3616   42.7251   33.7349 O   0  0  0  0  0  0  0  0  0  0  0  0
    9.8899   41.2268   34.2939 P   0  0  0  0  0  0  0  0  0  0  0  0
   10.3738   41.4565   35.8831 O   0  0  0  0  0  0  0  0  0  0  0  0
    9.9459   45.0736   33.2111 C   0  0  1  0  0  0  0  0  0  0  0  0
   11.0267   46.0291   33.4705 N   0  0  0  0  0  0  0  0  0  0  0  0
    9.7534   44.8538   31.6949 C   0  0  0  0  0  0  0  0  0  0  0  0
    8.7954   45.8411   31.0848 C   0  0  0  0  0  0  0  0  0  0  0  0
    7.4086   45.6008   31.1011 C   0  0  0  0  0  0  0  0  0  0  0  0
    9.2829   46.9879   30.4401 C   0  0  0  0  0  0  0  0  0  0  0  0
    6.5281   46.5013   30.4859 C   0  0  0  0  0  0  0  0  0  0  0  0
    8.4026   47.8894   29.8309 C   0  0  0  0  0  0  0  0  0  0  0  0
    7.0137   47.6501   29.8467 C   0  0  0  0  0  0  0  0  0  0  0  0
    6.0871   48.5133   29.2385 O   0  0  0  0  0  0  0  0  0  0  0  0
    6.4176   49.6887   28.4954 C   0  0  2  0  0  0  0  0  0  0  0  0
    5.1551   50.5082   28.2309 C   0  0  0  0  0  0  0  0  0  0  0  0
    7.1297   49.3678   27.1891 C   0  0  0  0  0  0  0  0  0  0  0  0
    8.0763   50.3116   26.7218 C   0  0  0  0  0  0  0  0  0  0  0  0
    6.9261   48.1540   26.4444 C   0  0  0  0  0  0  0  0  0  0  0  0
    8.7972   50.0203   25.5720 C   0  0  0  0  0  0  0  0  0  0  0  0
    7.7024   47.9076   25.2884 C   0  0  0  0  0  0  0  0  0  0  0  0
    5.9602   47.1673   26.8391 N   0  0  0  0  0  0  0  0  0  0  0  0
    9.7659   50.7836   24.9491 O   0  0  0  0  0  0  0  0  0  0  0  0
    8.6211   48.8676   24.8879 C   0  0  0  0  0  0  0  0  0  0  0  0
    4.6596   47.5311   27.0958 O   0  0  0  0  0  0  0  0  0  0  0  0
    6.2378   45.9537   26.7463 O   0  0  0  0  0  0  0  0  0  0  0  0
   10.2261   50.0613   23.7989 C   0  0  0  0  0  0  0  0  0  0  0  0
    9.4689   48.8434   23.7972 O   0  0  0  0  0  0  0  0  0  0  0  0
    8.8123   40.1845   34.2134 O   0  0  0  0  0  0  0  0  0  0  0  0
   11.2400   40.7954   33.3679 O   0  0  0  0  0  0  0  0  0  0  0  0
   10.9124   40.6877   31.9967 C   0  0  0  0  0  0  0  0  0  0  0  0
   11.5169   39.3811   31.4420 C   0  0  0  0  0  0  0  0  0  0  0  0
   12.7500   39.0881   32.0760 O   0  0  0  0  0  0  0  0  0  0  0  0
   10.6043   38.1893   31.6659 C   0  0  0  0  0  0  0  0  0  0  0  0
   12.9395   37.6814   32.0280 C   0  0  0  0  0  0  0  0  0  0  0  0
    9.6353   38.0951   30.6499 O   0  0  0  0  0  0  0  0  0  0  0  0
   11.5804   37.0191   31.6934 C   0  0  0  0  0  0  0  0  0  0  0  0
   13.4851   37.2119   33.3244 N   0  0  0  0  0  0  0  0  0  0  0  0
   11.6118   36.3189   30.4673 O   0  0  0  0  0  0  0  0  0  0  0  0
   14.4801   36.3316   33.5732 C   0  0  0  0  0  0  0  0  0  0  0  0
   13.1139   37.6277   34.5692 C   0  0  0  0  0  0  0  0  0  0  0  0
   15.2076   35.6154   32.6744 N   0  0  0  0  0  0  0  0  0  0  0  0
   14.6756   36.2303   34.9186 C   0  0  0  0  0  0  0  0  0  0  0  0
   13.8215   37.0451   35.5786 N   0  0  0  0  0  0  0  0  0  0  0  0
   16.1642   34.7602   33.1551 C   0  0  0  0  0  0  0  0  0  0  0  0
   15.6526   35.3505   35.4134 C   0  0  0  0  0  0  0  0  0  0  0  0
   16.3796   34.6316   34.5045 N   0  0  0  0  0  0  0  0  0  0  0  0
   15.9001   35.1933   36.8093 N   0  0  0  0  0  0  0  0  0  0  0  0
    8.9996   45.4383   33.6723 H   0  0  0  0  0  0  0  0  0  0  0  0
   10.7765   46.9368   33.0154 H   0  0  0  0  0  0  0  0  0  0  0  0
   11.0505   46.2278   34.4978 H   0  0  0  0  0  0  0  0  0  0  0  0
   10.7405   44.9069   31.1833 H   0  0  0  0  0  0  0  0  0  0  0  0
    9.3633   43.8353   31.4715 H   0  0  0  0  0  0  0  0  0  0  0  0
    7.0130   44.7162   31.5849 H   0  0  0  0  0  0  0  0  0  0  0  0
   10.3472   47.1863   30.4067 H   0  0  0  0  0  0  0  0  0  0  0  0
    5.4640   46.3027   30.5023 H   0  0  0  0  0  0  0  0  0  0  0  0
    8.8153   48.7631   29.3471 H   0  0  0  0  0  0  0  0  0  0  0  0
    7.0738   50.3218   29.1344 H   0  0  0  0  0  0  0  0  0  0  0  0
    4.4565   49.9716   27.5586 H   0  0  0  0  0  0  0  0  0  0  0  0
    5.4228   51.4784   27.7601 H   0  0  0  0  0  0  0  0  0  0  0  0
    4.6356   50.7170   29.1901 H   0  0  0  0  0  0  0  0  0  0  0  0
    8.2560   51.2402   27.2491 H   0  0  0  0  0  0  0  0  0  0  0  0
    7.5783   47.0011   24.7098 H   0  0  0  0  0  0  0  0  0  0  0  0
   11.3097   49.8386   23.8934 H   0  0  0  0  0  0  0  0  0  0  0  0
   10.0218   50.6408   22.8743 H   0  0  0  0  0  0  0  0  0  0  0  0
    9.8215   40.7221   31.7644 H   0  0  0  0  0  0  0  0  0  0  0  0
   11.3807   41.5456   31.4682 H   0  0  0  0  0  0  0  0  0  0  0  0
   11.6986   39.5087   30.3499 H   0  0  0  0  0  0  0  0  0  0  0  0
   10.1109   38.2737   32.6630 H   0  0  0  0  0  0  0  0  0  0  0  0
   13.6783   37.4562   31.2271 H   0  0  0  0  0  0  0  0  0  0  0  0
    9.0020   37.3860   30.9348 H   0  0  0  0  0  0  0  0  0  0  0  0
   11.2807   36.3053   32.4921 H   0  0  0  0  0  0  0  0  0  0  0  0
   11.8819   36.9600   29.7584 H   0  0  0  0  0  0  0  0  0  0  0  0
   12.3303   38.3538   34.7446 H   0  0  0  0  0  0  0  0  0  0  0  0
   16.7563   34.1783   32.4624 H   0  0  0  0  0  0  0  0  0  0  0  0
   15.3532   35.7359   37.5142 H   0  0  0  0  0  0  0  0  0  0  0  0
   16.6348   34.5301   37.1418 H   0  0  0  0  0  0  0  0  0  0  0  0
  1  2  2  0
  1  3  1  0
  3  4  1  0
  4  5  1  0
  6  1  1  0
  7  6  1  0
  6  8  1  0
  8  9  1  0
  9 10  2  0
 11  9  1  0
 10 12  1  0
 13 11  2  0
 12 14  2  0
 14 13  1  0
 14 15  1  0
 15 16  1  0
 16 17  1  0
 16 18  1  0
 18 19  2  0
 20 18  1  0
 19 21  1  0
 22 20  2  0
 20 23  1  0
 21 24  1  0
 21 25  2  0
 25 22  1  0
 23 26  1  0
 23 27  2  0
 24 28  1  0
 25 29  1  0
 28 29  1  0
  4 30  2  0
  4 31  1  0
 32 31  1  0
 32 33  1  0
 33 34  1  0
 33 35  1  0
 34 36  1  0
 35 37  1  0
 35 38  1  0
 38 36  1  0
 36 39  1  0
 38 40  1  0
 41 39  1  0
 42 39  1  0
 43 41  2  0
 41 44  1  0
 45 42  2  0
 46 43  1  0
 44 47  2  0
 44 45  1  0
 48 46  2  0
 48 47  1  0
 47 49  1  0
  6 50  1  1
  7 51  1  0
  7 52  1  0
  8 53  1  0
  8 54  1  0
 10 55  1  0
 11 56  1  0
 12 57  1  0
 13 58  1  0
 16 59  1  1
 17 60  1  0
 17 61  1  0
 17 62  1  0
 19 63  1  0
 22 64  1  0
 28 65  1  0
 28 66  1  0
 32 67  1  0
 32 68  1  0
 33 69  1  0
 35 70  1  0
 36 71  1  0
 37 72  1  0
 38 73  1  0
 40 74  1  0
 42 75  1  0
 46 76  1  0
 49 77  1  0
 49 78  1  0
M  CHG  3   5  -1  23   1  26  -1
M  END
>  <EmbedRMS>  (434) 
0.081399274984

$$$$

     RDKit          3D

 78 83  0  0  0  0  0  0  0  0999 V2000
   10.2804   43.7664   33.8249 C   0  0  0  0  0  0  0  0  0  0  0  0
   11.4111   43.5918   34.3666 O   0  0  0  0  0  0  0  0  0  0  0  0
    9.3619   42.7249   33.7344 O   0  0  0  0  0  0  0  0  0  0  0  0
    9.8899   41.2266   34.2940 P   0  0  0  0  0  0  0  0  0  0  0  0
   10.3734   41.4567   35.8833 O   0  0  0  0  0  0  0  0  0  0  0  0
    9.9460   45.0736   33.2111 C   0  0  1  0  0  0  0  0  0  0  0  0
   11.0267   46.0292   33.4708 N   0  0  0  0  0  0  0  0  0  0  0  0
    9.7542   44.8541   31.6947 C   0  0  0  0  0  0  0  0  0  0  0  0
    8.7959   45.8409   31.0844 C   0  0  0  0  0  0  0  0  0  0  0  0
    7.4092   45.6003   31.1013 C   0  0  0  0  0  0  0  0  0  0  0  0
    9.2824   46.9878   30.4400 C   0  0  0  0  0  0  0  0  0  0  0  0
    6.5256   46.4993   30.4873 C   0  0  0  0  0  0  0  0  0  0  0  0
    8.3996   47.8875   29.8321 C   0  0  0  0  0  0  0  0  0  0  0  0
    7.0179   47.6544   29.8444 C   0  0  0  0  0  0  0  0  0  0  0  0
    6.1850   48.5961   29.2172 O   0  0  0  0  0  0  0  0  0  0  0  0
    4.7734   48.4751   29.0233 C   0  0  2  0  0  0  0  0  0  0  0  0
    4.4708   47.4570   27.9155 C   0  0  0  0  0  0  0  0  0  0  0  0
    4.2139   49.8379   28.6562 C   0  0  0  0  0  0  0  0  0  0  0  0
    4.7217   50.4913   27.5054 C   0  0  0  0  0  0  0  0  0  0  0  0
    3.1658   50.4646   29.4088 C   0  0  0  0  0  0  0  0  0  0  0  0
    4.1543   51.6996   27.1220 C   0  0  0  0  0  0  0  0  0  0  0  0
    2.6157   51.6871   28.9607 C   0  0  0  0  0  0  0  0  0  0  0  0
    2.6757   49.8979   30.6319 N   0  0  0  0  0  0  0  0  0  0  0  0
    4.4792   52.4965   26.0412 O   0  0  0  0  0  0  0  0  0  0  0  0
    3.1418   52.2689   27.8152 C   0  0  0  0  0  0  0  0  0  0  0  0
    3.5504   49.6390   31.6619 O   0  0  0  0  0  0  0  0  0  0  0  0
    1.4496   49.8916   30.8659 O   0  0  0  0  0  0  0  0  0  0  0  0
    3.6135   53.6398   26.0586 C   0  0  0  0  0  0  0  0  0  0  0  0
    2.7758   53.4547   27.2078 O   0  0  0  0  0  0  0  0  0  0  0  0
    8.8123   40.1844   34.2133 O   0  0  0  0  0  0  0  0  0  0  0  0
   11.2405   40.7942   33.3692 O   0  0  0  0  0  0  0  0  0  0  0  0
   10.9150   40.6905   31.9972 C   0  0  0  0  0  0  0  0  0  0  0  0
   11.5252   39.3886   31.4375 C   0  0  0  0  0  0  0  0  0  0  0  0
   12.7499   39.0874   32.0799 O   0  0  0  0  0  0  0  0  0  0  0  0
   10.6092   38.1926   31.6470 C   0  0  0  0  0  0  0  0  0  0  0  0
   12.9332   37.6793   32.0294 C   0  0  0  0  0  0  0  0  0  0  0  0
    9.6122   38.0894   30.6542 O   0  0  0  0  0  0  0  0  0  0  0  0
   11.5743   37.0145   31.7024 C   0  0  0  0  0  0  0  0  0  0  0  0
   13.4844   37.2108   33.3241 N   0  0  0  0  0  0  0  0  0  0  0  0
   11.6297   36.3239   30.4740 O   0  0  0  0  0  0  0  0  0  0  0  0
   14.4802   36.3313   33.5727 C   0  0  0  0  0  0  0  0  0  0  0  0
   13.1138   37.6266   34.5692 C   0  0  0  0  0  0  0  0  0  0  0  0
   15.2075   35.6149   32.6739 N   0  0  0  0  0  0  0  0  0  0  0  0
   14.6761   36.2303   34.9182 C   0  0  0  0  0  0  0  0  0  0  0  0
   13.8220   37.0447   35.5785 N   0  0  0  0  0  0  0  0  0  0  0  0
   16.1643   34.7600   33.1547 C   0  0  0  0  0  0  0  0  0  0  0  0
   15.6529   35.3505   35.4130 C   0  0  0  0  0  0  0  0  0  0  0  0
   16.3798   34.6315   34.5042 N   0  0  0  0  0  0  0  0  0  0  0  0
   15.9003   35.1932   36.8090 N   0  0  0  0  0  0  0  0  0  0  0  0
    8.9995   45.4381   33.6719 H   0  0  0  0  0  0  0  0  0  0  0  0
   10.7765   46.9369   33.0159 H   0  0  0  0  0  0  0  0  0  0  0  0
   11.0501   46.2277   34.4982 H   0  0  0  0  0  0  0  0  0  0  0  0
    9.3648   43.8353   31.4710 H   0  0  0  0  0  0  0  0  0  0  0  0
   10.7414   44.9078   31.1835 H   0  0  0  0  0  0  0  0  0  0  0  0
    7.0153   44.7163   31.5878 H   0  0  0  0  0  0  0  0  0  0  0  0
   10.3462   47.1881   30.4062 H   0  0  0  0  0  0  0  0  0  0  0  0
    5.4685   46.2824   30.5279 H   0  0  0  0  0  0  0  0  0  0  0  0
    8.7921   48.7698   29.3425 H   0  0  0  0  0  0  0  0  0  0  0  0
    4.3013   48.1044   29.9514 H   0  0  0  0  0  0  0  0  0  0  0  0
    3.3788   47.4277   27.7122 H   0  0  0  0  0  0  0  0  0  0  0  0
    5.0072   47.7170   26.9790 H   0  0  0  0  0  0  0  0  0  0  0  0
    4.7909   46.4407   28.2233 H   0  0  0  0  0  0  0  0  0  0  0  0
    5.5260   50.0648   26.9198 H   0  0  0  0  0  0  0  0  0  0  0  0
    1.8214   52.1803   29.5062 H   0  0  0  0  0  0  0  0  0  0  0  0
    4.2090   54.5708   26.1644 H   0  0  0  0  0  0  0  0  0  0  0  0
    2.9971   53.6689   25.1357 H   0  0  0  0  0  0  0  0  0  0  0  0
   11.3800   41.5528   31.4730 H   0  0  0  0  0  0  0  0  0  0  0  0
    9.8242   40.7215   31.7641 H   0  0  0  0  0  0  0  0  0  0  0  0
   11.7266   39.5310   30.3513 H   0  0  0  0  0  0  0  0  0  0  0  0
   10.1110   38.2747   32.6387 H   0  0  0  0  0  0  0  0  0  0  0  0
   13.6652   37.4520   31.2226 H   0  0  0  0  0  0  0  0  0  0  0  0
   10.0511   38.1143   29.7645 H   0  0  0  0  0  0  0  0  0  0  0  0
   11.2762   36.3141   32.5189 H   0  0  0  0  0  0  0  0  0  0  0  0
   10.8593   35.6978   30.4640 H   0  0  0  0  0  0  0  0  0  0  0  0
   12.3295   38.3518   34.7449 H   0  0  0  0  0  0  0  0  0  0  0  0
   16.7564   34.1780   32.4620 H   0  0  0  0  0  0  0  0  0  0  0  0
   15.3534   35.7359   37.5138 H   0  0  0  0  0  0  0  0  0  0  0  0
   16.6349   34.5300   37.1415 H   0  0  0  0  0  0  0  0  0  0  0  0
  1  2  2  0
  1  3  1  0
  3  4  1  0
  4  5  1  0
  6  1  1  0
  7  6  1  0
  6  8  1  0
  8  9  1  0
  9 10  2  0
 11  9  1  0
 10 12  1  0
 13 11  2  0
 12 14  2  0
 14 13  1  0
 14 15  1  0
 15 16  1  0
 16 17  1  0
 16 18  1  0
 18 19  2  0
 20 18  1  0
 19 21  1  0
 22 20  2  0
 20 23  1  0
 21 24  1  0
 21 25  2  0
 25 22  1  0
 23 26  1  0
 23 27  2  0
 24 28  1  0
 25 29  1  0
 28 29  1  0
  4 30  2  0
  4 31  1  0
 32 31  1  0
 32 33  1  0
 33 34  1  0
 33 35  1  0
 34 36  1  0
 35 37  1  0
 35 38  1  0
 38 36  1  0
 36 39  1  0
 38 40  1  0
 41 39  1  0
 42 39  1  0
 43 41  2  0
 41 44  1  0
 45 42  2  0
 46 43  1  0
 44 47  2  0
 44 45  1  0
 48 46  2  0
 48 47  1  0
 47 49  1  0
  6 50  1  1
  7 51  1  0
  7 52  1  0
  8 53  1  0
  8 54  1  0
 10 55  1  0
 11 56  1  0
 12 57  1  0
 13 58  1  0
 16 59  1  1
 17 60  1  0
 17 61  1  0
 17 62  1  0
 19 63  1  0
 22 64  1  0
 28 65  1  0
 28 66  1  0
 32 67  1  0
 32 68  1  0
 33 69  1  0
 35 70  1  0
 36 71  1  0
 37 72  1  0
 38 73  1  0
 40 74  1  0
 42 75  1  0
 46 76  1  0
 49 77  1  0
 49 78  1  0
M  CHG  3   5  -1  23   1  26  -1
M  END
>  <EmbedRMS>  (435) 
0.0816274247118

$$$$

     RDKit          3D

 78 83  0  0  0  0  0  0  0  0999 V2000
   10.2834   43.7662   33.8258 C   0  0  0  0  0  0  0  0  0  0  0  0
   11.4102   43.5930   34.3753 O   0  0  0  0  0  0  0  0  0  0  0  0
    9.3635   42.7257   33.7353 O   0  0  0  0  0  0  0  0  0  0  0  0
    9.8899   41.2270   34.2948 P   0  0  0  0  0  0  0  0  0  0  0  0
   10.3732   41.4562   35.8841 O   0  0  0  0  0  0  0  0  0  0  0  0
    9.9547   45.0695   33.2037 C   0  0  1  0  0  0  0  0  0  0  0  0
   11.0274   46.0322   33.4757 N   0  0  0  0  0  0  0  0  0  0  0  0
    9.7465   44.8481   31.6878 C   0  0  0  0  0  0  0  0  0  0  0  0
    8.7923   45.8409   31.0847 C   0  0  0  0  0  0  0  0  0  0  0  0
    7.4057   45.6013   31.0988 C   0  0  0  0  0  0  0  0  0  0  0  0
    9.2821   46.9875   30.4422 C   0  0  0  0  0  0  0  0  0  0  0  0
    6.5272   46.5027   30.4832 C   0  0  0  0  0  0  0  0  0  0  0  0
    8.4034   47.8897   29.8307 C   0  0  0  0  0  0  0  0  0  0  0  0
    7.0134   47.6541   29.8486 C   0  0  0  0  0  0  0  0  0  0  0  0
    6.0825   48.5184   29.2491 O   0  0  0  0  0  0  0  0  0  0  0  0
    6.3682   49.7913   28.6634 C   0  0  2  0  0  0  0  0  0  0  0  0
    6.6739   50.8408   29.7388 C   0  0  0  0  0  0  0  0  0  0  0  0
    5.2131   50.2563   27.7923 C   0  0  0  0  0  0  0  0  0  0  0  0
    5.5289   51.0707   26.6768 C   0  0  0  0  0  0  0  0  0  0  0  0
    3.8407   49.8915   28.0240 C   0  0  0  0  0  0  0  0  0  0  0  0
    4.5048   51.4650   25.8266 C   0  0  0  0  0  0  0  0  0  0  0  0
    2.8441   50.3113   27.1127 C   0  0  0  0  0  0  0  0  0  0  0  0
    3.4386   49.1110   29.1604 N   0  0  0  0  0  0  0  0  0  0  0  0
    4.5854   52.2440   24.6884 O   0  0  0  0  0  0  0  0  0  0  0  0
    3.2201   51.0978   26.0328 C   0  0  0  0  0  0  0  0  0  0  0  0
    3.8090   49.4917   30.4286 O   0  0  0  0  0  0  0  0  0  0  0  0
    2.5718   48.2224   29.0286 O   0  0  0  0  0  0  0  0  0  0  0  0
    3.2639   52.3734   24.1465 C   0  0  0  0  0  0  0  0  0  0  0  0
    2.4227   51.6263   25.0359 O   0  0  0  0  0  0  0  0  0  0  0  0
    8.8120   40.1850   34.2133 O   0  0  0  0  0  0  0  0  0  0  0  0
   11.2403   40.7947   33.3700 O   0  0  0  0  0  0  0  0  0  0  0  0
   10.9145   40.6914   31.9982 C   0  0  0  0  0  0  0  0  0  0  0  0
   11.5270   39.3912   31.4385 C   0  0  0  0  0  0  0  0  0  0  0  0
   12.7520   39.0911   32.0836 O   0  0  0  0  0  0  0  0  0  0  0  0
   10.6113   38.1932   31.6451 C   0  0  0  0  0  0  0  0  0  0  0  0
   12.9413   37.6838   32.0297 C   0  0  0  0  0  0  0  0  0  0  0  0
    9.6064   38.0878   30.6599 O   0  0  0  0  0  0  0  0  0  0  0  0
   11.5822   37.0198   31.6877 C   0  0  0  0  0  0  0  0  0  0  0  0
   13.4840   37.2104   33.3254 N   0  0  0  0  0  0  0  0  0  0  0  0
   11.6179   36.3072   30.4691 O   0  0  0  0  0  0  0  0  0  0  0  0
   14.4797   36.3309   33.5738 C   0  0  0  0  0  0  0  0  0  0  0  0
   13.1137   37.6269   34.5702 C   0  0  0  0  0  0  0  0  0  0  0  0
   15.2074   35.6152   32.6747 N   0  0  0  0  0  0  0  0  0  0  0  0
   14.6756   36.2298   34.9190 C   0  0  0  0  0  0  0  0  0  0  0  0
   13.8217   37.0445   35.5793 N   0  0  0  0  0  0  0  0  0  0  0  0
   16.1643   34.7603   33.1551 C   0  0  0  0  0  0  0  0  0  0  0  0
   15.6528   35.3503   35.4136 C   0  0  0  0  0  0  0  0  0  0  0  0
   16.3798   34.6316   34.5046 N   0  0  0  0  0  0  0  0  0  0  0  0
   15.9004   35.1930   36.8094 N   0  0  0  0  0  0  0  0  0  0  0  0
    9.0121   45.4319   33.6716 H   0  0  0  0  0  0  0  0  0  0  0  0
   10.7260   46.9687   33.1213 H   0  0  0  0  0  0  0  0  0  0  0  0
   11.8906   45.7658   32.9470 H   0  0  0  0  0  0  0  0  0  0  0  0
   10.7229   44.8814   31.1558 H   0  0  0  0  0  0  0  0  0  0  0  0
    9.3414   43.8329   31.4765 H   0  0  0  0  0  0  0  0  0  0  0  0
    7.0085   44.7163   31.5804 H   0  0  0  0  0  0  0  0  0  0  0  0
   10.3469   47.1835   30.4103 H   0  0  0  0  0  0  0  0  0  0  0  0
    5.4625   46.3061   30.5008 H   0  0  0  0  0  0  0  0  0  0  0  0
    8.8212   48.7589   29.3444 H   0  0  0  0  0  0  0  0  0  0  0  0
    7.2610   49.6814   28.0096 H   0  0  0  0  0  0  0  0  0  0  0  0
    6.9870   51.7928   29.2596 H   0  0  0  0  0  0  0  0  0  0  0  0
    5.7840   51.0408   30.3684 H   0  0  0  0  0  0  0  0  0  0  0  0
    7.4983   50.5001   30.3974 H   0  0  0  0  0  0  0  0  0  0  0  0
    6.5469   51.3779   26.4713 H   0  0  0  0  0  0  0  0  0  0  0  0
    1.8037   50.0490   27.2563 H   0  0  0  0  0  0  0  0  0  0  0  0
    2.9566   53.4401   24.1340 H   0  0  0  0  0  0  0  0  0  0  0  0
    3.2233   51.9393   23.1255 H   0  0  0  0  0  0  0  0  0  0  0  0
    9.8235   40.7202   31.7653 H   0  0  0  0  0  0  0  0  0  0  0  0
   11.3777   41.5549   31.4744 H   0  0  0  0  0  0  0  0  0  0  0  0
   11.7312   39.5363   30.3532 H   0  0  0  0  0  0  0  0  0  0  0  0
   10.1202   38.2697   32.6410 H   0  0  0  0  0  0  0  0  0  0  0  0
   13.6850   37.4639   31.2321 H   0  0  0  0  0  0  0  0  0  0  0  0
   10.0251   38.1792   29.7654 H   0  0  0  0  0  0  0  0  0  0  0  0
   11.2757   36.3135   32.4908 H   0  0  0  0  0  0  0  0  0  0  0  0
   11.9838   36.9111   29.7708 H   0  0  0  0  0  0  0  0  0  0  0  0
   12.3307   38.3536   34.7458 H   0  0  0  0  0  0  0  0  0  0  0  0
   16.7566   34.1787   32.4622 H   0  0  0  0  0  0  0  0  0  0  0  0
   16.6353   34.5301   37.1419 H   0  0  0  0  0  0  0  0  0  0  0  0
   15.3535   35.7355   37.5144 H   0  0  0  0  0  0  0  0  0  0  0  0
  1  2  2  0
  1  3  1  0
  3  4  1  0
  4  5  1  0
  6  1  1  0
  7  6  1  0
  6  8  1  0
  8  9  1  0
  9 10  2  0
 11  9  1  0
 10 12  1  0
 13 11  2  0
 12 14  2  0
 14 13  1  0
 14 15  1  0
 15 16  1  0
 16 17  1  0
 16 18  1  0
 18 19  2  0
 20 18  1  0
 19 21  1  0
 22 20  2  0
 20 23  1  0
 21 24  1  0
 21 25  2  0
 25 22  1  0
 23 26  1  0
 23 27  2  0
 24 28  1  0
 25 29  1  0
 28 29  1  0
  4 30  2  0
  4 31  1  0
 32 31  1  0
 32 33  1  0
 33 34  1  0
 33 35  1  0
 34 36  1  0
 35 37  1  0
 35 38  1  0
 38 36  1  0
 36 39  1  0
 38 40  1  0
 41 39  1  0
 42 39  1  0
 43 41  2  0
 41 44  1  0
 45 42  2  0
 46 43  1  0
 44 47  2  0
 44 45  1  0
 48 46  2  0
 48 47  1  0
 47 49  1  0
  6 50  1  1
  7 51  1  0
  7 52  1  0
  8 53  1  0
  8 54  1  0
 10 55  1  0
 11 56  1  0
 12 57  1  0
 13 58  1  0
 16 59  1  6
 17 60  1  0
 17 61  1  0
 17 62  1  0
 19 63  1  0
 22 64  1  0
 28 65  1  0
 28 66  1  0
 32 67  1  0
 32 68  1  0
 33 69  1  0
 35 70  1  0
 36 71  1  0
 37 72  1  0
 38 73  1  0
 40 74  1  0
 42 75  1  0
 46 76  1  0
 49 77  1  0
 49 78  1  0
M  CHG  3   5  -1  23   1  26  -1
M  END
>  <EmbedRMS>  (436) 
0.0808198562941

$$$$

     RDKit          3D

 78 83  0  0  0  0  0  0  0  0999 V2000
   10.2834   43.7662   33.8253 C   0  0  0  0  0  0  0  0  0  0  0  0
   11.4101   43.5931   34.3751 O   0  0  0  0  0  0  0  0  0  0  0  0
    9.3637   42.7255   33.7347 O   0  0  0  0  0  0  0  0  0  0  0  0
    9.8906   41.2266   34.2933 P   0  0  0  0  0  0  0  0  0  0  0  0
   10.3742   41.4559   35.8827 O   0  0  0  0  0  0  0  0  0  0  0  0
    9.9546   45.0696   33.2029 C   0  0  1  0  0  0  0  0  0  0  0  0
   11.0271   46.0324   33.4753 N   0  0  0  0  0  0  0  0  0  0  0  0
    9.7467   44.8484   31.6868 C   0  0  0  0  0  0  0  0  0  0  0  0
    8.7922   45.8408   31.0831 C   0  0  0  0  0  0  0  0  0  0  0  0
    7.4040   45.6017   31.0999 C   0  0  0  0  0  0  0  0  0  0  0  0
    9.2824   46.9896   30.4416 C   0  0  0  0  0  0  0  0  0  0  0  0
    6.5242   46.5046   30.4868 C   0  0  0  0  0  0  0  0  0  0  0  0
    8.4009   47.8917   29.8345 C   0  0  0  0  0  0  0  0  0  0  0  0
    7.0205   47.6473   29.8452 C   0  0  0  0  0  0  0  0  0  0  0  0
    6.1396   48.5495   29.2411 O   0  0  0  0  0  0  0  0  0  0  0  0
    5.8026   48.5142   27.8506 C   0  0  2  0  0  0  0  0  0  0  0  0
    4.9525   47.2782   27.5212 C   0  0  0  0  0  0  0  0  0  0  0  0
    7.0437   48.6626   26.9760 C   0  0  0  0  0  0  0  0  0  0  0  0
    7.7838   47.5133   26.5923 C   0  0  0  0  0  0  0  0  0  0  0  0
    7.4925   49.9551   26.5379 C   0  0  0  0  0  0  0  0  0  0  0  0
    8.8825   47.6763   25.7598 C   0  0  0  0  0  0  0  0  0  0  0  0
    8.6061   50.0549   25.6737 C   0  0  0  0  0  0  0  0  0  0  0  0
    6.8576   51.1666   26.9787 N   0  0  0  0  0  0  0  0  0  0  0  0
    9.7314   46.7076   25.2598 O   0  0  0  0  0  0  0  0  0  0  0  0
    9.2715   48.8918   25.3136 C   0  0  0  0  0  0  0  0  0  0  0  0
    6.7935   52.2515   26.1350 O   0  0  0  0  0  0  0  0  0  0  0  0
    6.5694   51.3238   28.1830 O   0  0  0  0  0  0  0  0  0  0  0  0
   10.7156   47.3596   24.4455 C   0  0  0  0  0  0  0  0  0  0  0  0
   10.3853   48.7537   24.5078 O   0  0  0  0  0  0  0  0  0  0  0  0
    8.8123   40.1850   34.2125 O   0  0  0  0  0  0  0  0  0  0  0  0
   11.2406   40.7945   33.3671 O   0  0  0  0  0  0  0  0  0  0  0  0
   10.9134   40.6866   31.9955 C   0  0  0  0  0  0  0  0  0  0  0  0
   11.5167   39.3787   31.4405 C   0  0  0  0  0  0  0  0  0  0  0  0
   12.7486   39.0849   32.0736 O   0  0  0  0  0  0  0  0  0  0  0  0
   10.6040   38.1883   31.6669 C   0  0  0  0  0  0  0  0  0  0  0  0
   12.9330   37.6776   32.0284 C   0  0  0  0  0  0  0  0  0  0  0  0
    9.6375   38.0938   30.6484 O   0  0  0  0  0  0  0  0  0  0  0  0
   11.5738   37.0140   31.7055 C   0  0  0  0  0  0  0  0  0  0  0  0
   13.4853   37.2120   33.3239 N   0  0  0  0  0  0  0  0  0  0  0  0
   11.6212   36.3380   30.4682 O   0  0  0  0  0  0  0  0  0  0  0  0
   14.4804   36.3318   33.5727 C   0  0  0  0  0  0  0  0  0  0  0  0
   13.1141   37.6275   34.5690 C   0  0  0  0  0  0  0  0  0  0  0  0
   15.2075   35.6150   32.6740 N   0  0  0  0  0  0  0  0  0  0  0  0
   14.6760   36.2305   34.9181 C   0  0  0  0  0  0  0  0  0  0  0  0
   13.8219   37.0450   35.5783 N   0  0  0  0  0  0  0  0  0  0  0  0
   16.1642   34.7599   33.1548 C   0  0  0  0  0  0  0  0  0  0  0  0
   15.6527   35.3505   35.4131 C   0  0  0  0  0  0  0  0  0  0  0  0
   16.3795   34.6314   34.5043 N   0  0  0  0  0  0  0  0  0  0  0  0
   15.9000   35.1933   36.8091 N   0  0  0  0  0  0  0  0  0  0  0  0
    9.0119   45.4319   33.6706 H   0  0  0  0  0  0  0  0  0  0  0  0
   11.8905   45.7661   32.9468 H   0  0  0  0  0  0  0  0  0  0  0  0
   10.7258   46.9690   33.1207 H   0  0  0  0  0  0  0  0  0  0  0  0
    9.3419   43.8332   31.4752 H   0  0  0  0  0  0  0  0  0  0  0  0
   10.7230   44.8824   31.1548 H   0  0  0  0  0  0  0  0  0  0  0  0
    7.0070   44.7180   31.5841 H   0  0  0  0  0  0  0  0  0  0  0  0
   10.3465   47.1886   30.4113 H   0  0  0  0  0  0  0  0  0  0  0  0
    5.4587   46.3146   30.5076 H   0  0  0  0  0  0  0  0  0  0  0  0
    8.7909   48.7783   29.3508 H   0  0  0  0  0  0  0  0  0  0  0  0
    5.1285   49.3733   27.6519 H   0  0  0  0  0  0  0  0  0  0  0  0
    5.4595   46.3386   27.8196 H   0  0  0  0  0  0  0  0  0  0  0  0
    3.9900   47.3323   28.0730 H   0  0  0  0  0  0  0  0  0  0  0  0
    4.7312   47.2440   26.4330 H   0  0  0  0  0  0  0  0  0  0  0  0
    7.5225   46.5203   26.9283 H   0  0  0  0  0  0  0  0  0  0  0  0
    8.9633   51.0142   25.3222 H   0  0  0  0  0  0  0  0  0  0  0  0
   10.6493   46.9966   23.3984 H   0  0  0  0  0  0  0  0  0  0  0  0
   11.7314   47.1878   24.8592 H   0  0  0  0  0  0  0  0  0  0  0  0
    9.8225   40.7223   31.7633 H   0  0  0  0  0  0  0  0  0  0  0  0
   11.3826   41.5439   31.4670 H   0  0  0  0  0  0  0  0  0  0  0  0
   11.6981   39.5036   30.3480 H   0  0  0  0  0  0  0  0  0  0  0  0
   10.1085   38.2786   32.6627 H   0  0  0  0  0  0  0  0  0  0  0  0
   13.6640   37.4473   31.2216 H   0  0  0  0  0  0  0  0  0  0  0  0
    8.9763   37.4192   30.9531 H   0  0  0  0  0  0  0  0  0  0  0  0
   11.2824   36.3052   32.5170 H   0  0  0  0  0  0  0  0  0  0  0  0
   10.8661   35.6935   30.4650 H   0  0  0  0  0  0  0  0  0  0  0  0
   12.3296   38.3525   34.7448 H   0  0  0  0  0  0  0  0  0  0  0  0
   16.7561   34.1776   32.4621 H   0  0  0  0  0  0  0  0  0  0  0  0
   15.3532   35.7362   37.5138 H   0  0  0  0  0  0  0  0  0  0  0  0
   16.6345   34.5300   37.1418 H   0  0  0  0  0  0  0  0  0  0  0  0
  1  2  2  0
  1  3  1  0
  3  4  1  0
  4  5  1  0
  6  1  1  0
  7  6  1  0
  6  8  1  0
  8  9  1  0
  9 10  2  0
 11  9  1  0
 10 12  1  0
 13 11  2  0
 12 14  2  0
 14 13  1  0
 14 15  1  0
 15 16  1  0
 16 17  1  0
 16 18  1  0
 18 19  2  0
 20 18  1  0
 19 21  1  0
 22 20  2  0
 20 23  1  0
 21 24  1  0
 21 25  2  0
 25 22  1  0
 23 26  1  0
 23 27  2  0
 24 28  1  0
 25 29  1  0
 28 29  1  0
  4 30  2  0
  4 31  1  0
 32 31  1  0
 32 33  1  0
 33 34  1  0
 33 35  1  0
 34 36  1  0
 35 37  1  0
 35 38  1  0
 38 36  1  0
 36 39  1  0
 38 40  1  0
 41 39  1  0
 42 39  1  0
 43 41  2  0
 41 44  1  0
 45 42  2  0
 46 43  1  0
 44 47  2  0
 44 45  1  0
 48 46  2  0
 48 47  1  0
 47 49  1  0
  6 50  1  1
  7 51  1  0
  7 52  1  0
  8 53  1  0
  8 54  1  0
 10 55  1  0
 11 56  1  0
 12 57  1  0
 13 58  1  0
 16 59  1  1
 17 60  1  0
 17 61  1  0
 17 62  1  0
 19 63  1  0
 22 64  1  0
 28 65  1  0
 28 66  1  0
 32 67  1  0
 32 68  1  0
 33 69  1  0
 35 70  1  0
 36 71  1  0
 37 72  1  0
 38 73  1  0
 40 74  1  0
 42 75  1  0
 46 76  1  0
 49 77  1  0
 49 78  1  0
M  CHG  3   5  -1  23   1  26  -1
M  END
>  <EmbedRMS>  (437) 
0.0826884958727

$$$$

     RDKit          3D

 78 83  0  0  0  0  0  0  0  0999 V2000
   10.2804   43.7664   33.8251 C   0  0  0  0  0  0  0  0  0  0  0  0
   11.4111   43.5917   34.3666 O   0  0  0  0  0  0  0  0  0  0  0  0
    9.3617   42.7251   33.7348 O   0  0  0  0  0  0  0  0  0  0  0  0
    9.8895   41.2269   34.2945 P   0  0  0  0  0  0  0  0  0  0  0  0
   10.3731   41.4568   35.8837 O   0  0  0  0  0  0  0  0  0  0  0  0
    9.9461   45.0737   33.2114 C   0  0  1  0  0  0  0  0  0  0  0  0
   11.0269   46.0292   33.4710 N   0  0  0  0  0  0  0  0  0  0  0  0
    9.7539   44.8544   31.6952 C   0  0  0  0  0  0  0  0  0  0  0  0
    8.7957   45.8419   31.0861 C   0  0  0  0  0  0  0  0  0  0  0  0
    7.4094   45.5998   31.1002 C   0  0  0  0  0  0  0  0  0  0  0  0
    9.2822   46.9874   30.4394 C   0  0  0  0  0  0  0  0  0  0  0  0
    6.5267   46.4981   30.4848 C   0  0  0  0  0  0  0  0  0  0  0  0
    8.3995   47.8855   29.8291 C   0  0  0  0  0  0  0  0  0  0  0  0
    7.0170   47.6574   29.8487 C   0  0  0  0  0  0  0  0  0  0  0  0
    6.1850   48.5979   29.2098 O   0  0  0  0  0  0  0  0  0  0  0  0
    4.7596   48.7358   29.3356 C   0  0  2  0  0  0  0  0  0  0  0  0
    4.3577   48.8438   30.8210 C   0  0  0  0  0  0  0  0  0  0  0  0
    3.9779   47.6670   28.5665 C   0  0  0  0  0  0  0  0  0  0  0  0
    4.6696   46.6802   27.8135 C   0  0  0  0  0  0  0  0  0  0  0  0
    2.5402   47.6421   28.5711 C   0  0  0  0  0  0  0  0  0  0  0  0
    3.9379   45.6784   27.1904 C   0  0  0  0  0  0  0  0  0  0  0  0
    1.8509   46.5863   27.9323 C   0  0  0  0  0  0  0  0  0  0  0  0
    1.7703   48.6918   29.1749 N   0  0  0  0  0  0  0  0  0  0  0  0
    4.4039   44.6176   26.4376 O   0  0  0  0  0  0  0  0  0  0  0  0
    2.5894   45.6273   27.2559 C   0  0  0  0  0  0  0  0  0  0  0  0
    2.0214   50.0036   28.8461 O   0  0  0  0  0  0  0  0  0  0  0  0
    0.7282   48.4170   29.8048 O   0  0  0  0  0  0  0  0  0  0  0  0
    3.2719   43.8501   26.0063 C   0  0  0  0  0  0  0  0  0  0  0  0
    2.1328   44.5309   26.5500 O   0  0  0  0  0  0  0  0  0  0  0  0
    8.8122   40.1844   34.2135 O   0  0  0  0  0  0  0  0  0  0  0  0
   11.2401   40.7949   33.3698 O   0  0  0  0  0  0  0  0  0  0  0  0
   10.9143   40.6914   31.9981 C   0  0  0  0  0  0  0  0  0  0  0  0
   11.5269   39.3911   31.4385 C   0  0  0  0  0  0  0  0  0  0  0  0
   12.7519   39.0911   32.0837 O   0  0  0  0  0  0  0  0  0  0  0  0
   10.6113   38.1932   31.6451 C   0  0  0  0  0  0  0  0  0  0  0  0
   12.9413   37.6838   32.0297 C   0  0  0  0  0  0  0  0  0  0  0  0
    9.6064   38.0877   30.6599 O   0  0  0  0  0  0  0  0  0  0  0  0
   11.5822   37.0197   31.6877 C   0  0  0  0  0  0  0  0  0  0  0  0
   13.4840   37.2105   33.3254 N   0  0  0  0  0  0  0  0  0  0  0  0
   11.6179   36.3072   30.4690 O   0  0  0  0  0  0  0  0  0  0  0  0
   14.4797   36.3309   33.5738 C   0  0  0  0  0  0  0  0  0  0  0  0
   13.1137   37.6269   34.5702 C   0  0  0  0  0  0  0  0  0  0  0  0
   15.2074   35.6152   32.6747 N   0  0  0  0  0  0  0  0  0  0  0  0
   14.6756   36.2298   34.9190 C   0  0  0  0  0  0  0  0  0  0  0  0
   13.8217   37.0445   35.5793 N   0  0  0  0  0  0  0  0  0  0  0  0
   16.1643   34.7603   33.1551 C   0  0  0  0  0  0  0  0  0  0  0  0
   15.6528   35.3503   35.4136 C   0  0  0  0  0  0  0  0  0  0  0  0
   16.3798   34.6316   34.5046 N   0  0  0  0  0  0  0  0  0  0  0  0
   15.9004   35.1930   36.8094 N   0  0  0  0  0  0  0  0  0  0  0  0
    8.9997   45.4382   33.6726 H   0  0  0  0  0  0  0  0  0  0  0  0
   10.7767   46.9369   33.0161 H   0  0  0  0  0  0  0  0  0  0  0  0
   11.0505   46.2276   34.4984 H   0  0  0  0  0  0  0  0  0  0  0  0
    9.3643   43.8358   31.4712 H   0  0  0  0  0  0  0  0  0  0  0  0
   10.7410   44.9082   31.1837 H   0  0  0  0  0  0  0  0  0  0  0  0
    7.0160   44.7102   31.5767 H   0  0  0  0  0  0  0  0  0  0  0  0
   10.3462   47.1867   30.4037 H   0  0  0  0  0  0  0  0  0  0  0  0
    5.4748   46.2596   30.4861 H   0  0  0  0  0  0  0  0  0  0  0  0
    8.7924   48.7657   29.3362 H   0  0  0  0  0  0  0  0  0  0  0  0
    4.5158   49.7094   28.8622 H   0  0  0  0  0  0  0  0  0  0  0  0
    4.0917   47.8568   31.2502 H   0  0  0  0  0  0  0  0  0  0  0  0
    5.1890   49.2809   31.4139 H   0  0  0  0  0  0  0  0  0  0  0  0
    3.4856   49.5163   30.9471 H   0  0  0  0  0  0  0  0  0  0  0  0
    5.7445   46.6761   27.7092 H   0  0  0  0  0  0  0  0  0  0  0  0
    0.7695   46.5383   27.9317 H   0  0  0  0  0  0  0  0  0  0  0  0
    3.2170   43.8365   24.8976 H   0  0  0  0  0  0  0  0  0  0  0  0
    3.3307   42.8181   26.4111 H   0  0  0  0  0  0  0  0  0  0  0  0
    9.8233   40.7200   31.7652 H   0  0  0  0  0  0  0  0  0  0  0  0
   11.3775   41.5548   31.4741 H   0  0  0  0  0  0  0  0  0  0  0  0
   11.7312   39.5362   30.3532 H   0  0  0  0  0  0  0  0  0  0  0  0
   10.1202   38.2696   32.6410 H   0  0  0  0  0  0  0  0  0  0  0  0
   13.6850   37.4639   31.2321 H   0  0  0  0  0  0  0  0  0  0  0  0
   10.0250   38.1792   29.7654 H   0  0  0  0  0  0  0  0  0  0  0  0
   11.2757   36.3135   32.4907 H   0  0  0  0  0  0  0  0  0  0  0  0
   11.9838   36.9111   29.7708 H   0  0  0  0  0  0  0  0  0  0  0  0
   12.3307   38.3537   34.7458 H   0  0  0  0  0  0  0  0  0  0  0  0
   16.7566   34.1787   32.4623 H   0  0  0  0  0  0  0  0  0  0  0  0
   15.3535   35.7355   37.5144 H   0  0  0  0  0  0  0  0  0  0  0  0
   16.6353   34.5301   37.1419 H   0  0  0  0  0  0  0  0  0  0  0  0
  1  2  2  0
  1  3  1  0
  3  4  1  0
  4  5  1  0
  6  1  1  0
  7  6  1  0
  6  8  1  0
  8  9  1  0
  9 10  2  0
 11  9  1  0
 10 12  1  0
 13 11  2  0
 12 14  2  0
 14 13  1  0
 14 15  1  0
 15 16  1  0
 16 17  1  0
 16 18  1  0
 18 19  2  0
 20 18  1  0
 19 21  1  0
 22 20  2  0
 20 23  1  0
 21 24  1  0
 21 25  2  0
 25 22  1  0
 23 26  1  0
 23 27  2  0
 24 28  1  0
 25 29  1  0
 28 29  1  0
  4 30  2  0
  4 31  1  0
 32 31  1  0
 32 33  1  0
 33 34  1  0
 33 35  1  0
 34 36  1  0
 35 37  1  0
 35 38  1  0
 38 36  1  0
 36 39  1  0
 38 40  1  0
 41 39  1  0
 42 39  1  0
 43 41  2  0
 41 44  1  0
 45 42  2  0
 46 43  1  0
 44 47  2  0
 44 45  1  0
 48 46  2  0
 48 47  1  0
 47 49  1  0
  6 50  1  1
  7 51  1  0
  7 52  1  0
  8 53  1  0
  8 54  1  0
 10 55  1  0
 11 56  1  0
 12 57  1  0
 13 58  1  0
 16 59  1  6
 17 60  1  0
 17 61  1  0
 17 62  1  0
 19 63  1  0
 22 64  1  0
 28 65  1  0
 28 66  1  0
 32 67  1  0
 32 68  1  0
 33 69  1  0
 35 70  1  0
 36 71  1  0
 37 72  1  0
 38 73  1  0
 40 74  1  0
 42 75  1  0
 46 76  1  0
 49 77  1  0
 49 78  1  0
M  CHG  3   5  -1  23   1  26  -1
M  END
>  <EmbedRMS>  (438) 
0.0806192065604

$$$$

     RDKit          3D

 78 83  0  0  0  0  0  0  0  0999 V2000
   10.2804   43.7664   33.8250 C   0  0  0  0  0  0  0  0  0  0  0  0
   11.4111   43.5919   34.3666 O   0  0  0  0  0  0  0  0  0  0  0  0
    9.3618   42.7250   33.7346 O   0  0  0  0  0  0  0  0  0  0  0  0
    9.8898   41.2267   34.2940 P   0  0  0  0  0  0  0  0  0  0  0  0
   10.3735   41.4566   35.8832 O   0  0  0  0  0  0  0  0  0  0  0  0
    9.9459   45.0735   33.2111 C   0  0  1  0  0  0  0  0  0  0  0  0
   11.0266   46.0292   33.4705 N   0  0  0  0  0  0  0  0  0  0  0  0
    9.7536   44.8537   31.6948 C   0  0  0  0  0  0  0  0  0  0  0  0
    8.7956   45.8407   31.0844 C   0  0  0  0  0  0  0  0  0  0  0  0
    7.4088   45.6008   31.1013 C   0  0  0  0  0  0  0  0  0  0  0  0
    9.2827   46.9879   30.4403 C   0  0  0  0  0  0  0  0  0  0  0  0
    6.5284   46.5016   30.4866 C   0  0  0  0  0  0  0  0  0  0  0  0
    8.4021   47.8897   29.8316 C   0  0  0  0  0  0  0  0  0  0  0  0
    7.0137   47.6500   29.8455 C   0  0  0  0  0  0  0  0  0  0  0  0
    6.0847   48.5149   29.2440 O   0  0  0  0  0  0  0  0  0  0  0  0
    6.4039   49.6472   28.4343 C   0  0  2  0  0  0  0  0  0  0  0  0
    5.1453   50.4867   28.2117 C   0  0  0  0  0  0  0  0  0  0  0  0
    7.0248   49.2282   27.1083 C   0  0  0  0  0  0  0  0  0  0  0  0
    8.2901   49.7701   26.7714 C   0  0  0  0  0  0  0  0  0  0  0  0
    6.3637   48.3662   26.1660 C   0  0  0  0  0  0  0  0  0  0  0  0
    8.8491   49.4465   25.5425 C   0  0  0  0  0  0  0  0  0  0  0  0
    6.9756   48.0868   24.9239 C   0  0  0  0  0  0  0  0  0  0  0  0
    5.0749   47.7945   26.4271 N   0  0  0  0  0  0  0  0  0  0  0  0
   10.0591   49.8550   25.0152 O   0  0  0  0  0  0  0  0  0  0  0  0
    8.2192   48.6417   24.6573 C   0  0  0  0  0  0  0  0  0  0  0  0
    4.1140   47.8192   25.4430 O   0  0  0  0  0  0  0  0  0  0  0  0
    4.9099   47.0417   27.4076 O   0  0  0  0  0  0  0  0  0  0  0  0
   10.1965   49.2656   23.7151 C   0  0  0  0  0  0  0  0  0  0  0  0
    8.9992   48.4993   23.5258 O   0  0  0  0  0  0  0  0  0  0  0  0
    8.8122   40.1845   34.2133 O   0  0  0  0  0  0  0  0  0  0  0  0
   11.2402   40.7943   33.3688 O   0  0  0  0  0  0  0  0  0  0  0  0
   10.9142   40.6897   31.9970 C   0  0  0  0  0  0  0  0  0  0  0  0
   11.5260   39.3884   31.4376 C   0  0  0  0  0  0  0  0  0  0  0  0
   12.7504   39.0888   32.0816 O   0  0  0  0  0  0  0  0  0  0  0  0
   10.6115   38.1909   31.6460 C   0  0  0  0  0  0  0  0  0  0  0  0
   12.9357   37.6812   32.0303 C   0  0  0  0  0  0  0  0  0  0  0  0
    9.6146   38.0858   30.6534 O   0  0  0  0  0  0  0  0  0  0  0  0
   11.5769   37.0148   31.7012 C   0  0  0  0  0  0  0  0  0  0  0  0
   13.4849   37.2112   33.3247 N   0  0  0  0  0  0  0  0  0  0  0  0
   11.6193   36.3261   30.4724 O   0  0  0  0  0  0  0  0  0  0  0  0
   14.4802   36.3314   33.5730 C   0  0  0  0  0  0  0  0  0  0  0  0
   13.1141   37.6268   34.5698 C   0  0  0  0  0  0  0  0  0  0  0  0
   15.2075   35.6151   32.6741 N   0  0  0  0  0  0  0  0  0  0  0  0
   14.6761   36.2300   34.9184 C   0  0  0  0  0  0  0  0  0  0  0  0
   13.8220   37.0444   35.5789 N   0  0  0  0  0  0  0  0  0  0  0  0
   16.1642   34.7600   33.1547 C   0  0  0  0  0  0  0  0  0  0  0  0
   15.6530   35.3503   35.4132 C   0  0  0  0  0  0  0  0  0  0  0  0
   16.3798   34.6314   34.5042 N   0  0  0  0  0  0  0  0  0  0  0  0
   15.9004   35.1931   36.8091 N   0  0  0  0  0  0  0  0  0  0  0  0
    8.9995   45.4381   33.6721 H   0  0  0  0  0  0  0  0  0  0  0  0
   10.7762   46.9368   33.0156 H   0  0  0  0  0  0  0  0  0  0  0  0
   11.0503   46.2278   34.4979 H   0  0  0  0  0  0  0  0  0  0  0  0
   10.7407   44.9070   31.1834 H   0  0  0  0  0  0  0  0  0  0  0  0
    9.3638   43.8351   31.4713 H   0  0  0  0  0  0  0  0  0  0  0  0
    7.0130   44.7167   31.5858 H   0  0  0  0  0  0  0  0  0  0  0  0
   10.3467   47.1880   30.4092 H   0  0  0  0  0  0  0  0  0  0  0  0
    5.4641   46.3040   30.5055 H   0  0  0  0  0  0  0  0  0  0  0  0
    8.8147   48.7681   29.3596 H   0  0  0  0  0  0  0  0  0  0  0  0
    7.1046   50.2974   29.0040 H   0  0  0  0  0  0  0  0  0  0  0  0
    4.7767   50.8700   29.1868 H   0  0  0  0  0  0  0  0  0  0  0  0
    4.3348   49.8882   27.7492 H   0  0  0  0  0  0  0  0  0  0  0  0
    5.3742   51.3553   27.5578 H   0  0  0  0  0  0  0  0  0  0  0  0
    8.8207   50.4349   27.4412 H   0  0  0  0  0  0  0  0  0  0  0  0
    6.4980   47.4457   24.1939 H   0  0  0  0  0  0  0  0  0  0  0  0
   11.0853   48.6010   23.6866 H   0  0  0  0  0  0  0  0  0  0  0  0
   10.2711   50.0574   22.9405 H   0  0  0  0  0  0  0  0  0  0  0  0
   11.3777   41.5525   31.4724 H   0  0  0  0  0  0  0  0  0  0  0  0
    9.8231   40.7190   31.7645 H   0  0  0  0  0  0  0  0  0  0  0  0
   11.7283   39.5310   30.3515 H   0  0  0  0  0  0  0  0  0  0  0  0
   10.1127   38.2733   32.6377 H   0  0  0  0  0  0  0  0  0  0  0  0
   13.6693   37.4566   31.2242 H   0  0  0  0  0  0  0  0  0  0  0  0
   10.0533   38.1117   29.7635 H   0  0  0  0  0  0  0  0  0  0  0  0
   11.2607   36.3147   32.5101 H   0  0  0  0  0  0  0  0  0  0  0  0
   12.1496   35.5023   30.6324 H   0  0  0  0  0  0  0  0  0  0  0  0
   12.3299   38.3522   34.7456 H   0  0  0  0  0  0  0  0  0  0  0  0
   16.7563   34.1781   32.4619 H   0  0  0  0  0  0  0  0  0  0  0  0
   15.3535   35.7357   37.5140 H   0  0  0  0  0  0  0  0  0  0  0  0
   16.6350   34.5299   37.1417 H   0  0  0  0  0  0  0  0  0  0  0  0
  1  2  2  0
  1  3  1  0
  3  4  1  0
  4  5  1  0
  6  1  1  0
  7  6  1  0
  6  8  1  0
  8  9  1  0
  9 10  2  0
 11  9  1  0
 10 12  1  0
 13 11  2  0
 12 14  2  0
 14 13  1  0
 14 15  1  0
 15 16  1  0
 16 17  1  0
 16 18  1  0
 18 19  2  0
 20 18  1  0
 19 21  1  0
 22 20  2  0
 20 23  1  0
 21 24  1  0
 21 25  2  0
 25 22  1  0
 23 26  1  0
 23 27  2  0
 24 28  1  0
 25 29  1  0
 28 29  1  0
  4 30  2  0
  4 31  1  0
 32 31  1  0
 32 33  1  0
 33 34  1  0
 33 35  1  0
 34 36  1  0
 35 37  1  0
 35 38  1  0
 38 36  1  0
 36 39  1  0
 38 40  1  0
 41 39  1  0
 42 39  1  0
 43 41  2  0
 41 44  1  0
 45 42  2  0
 46 43  1  0
 44 47  2  0
 44 45  1  0
 48 46  2  0
 48 47  1  0
 47 49  1  0
  6 50  1  1
  7 51  1  0
  7 52  1  0
  8 53  1  0
  8 54  1  0
 10 55  1  0
 11 56  1  0
 12 57  1  0
 13 58  1  0
 16 59  1  1
 17 60  1  0
 17 61  1  0
 17 62  1  0
 19 63  1  0
 22 64  1  0
 28 65  1  0
 28 66  1  0
 32 67  1  0
 32 68  1  0
 33 69  1  0
 35 70  1  0
 36 71  1  0
 37 72  1  0
 38 73  1  0
 40 74  1  0
 42 75  1  0
 46 76  1  0
 49 77  1  0
 49 78  1  0
M  CHG  3   5  -1  23   1  26  -1
M  END
>  <EmbedRMS>  (439) 
0.0814661106788

$$$$
